data_ZIF
_cell_length_a                         23.82480
_cell_length_b                         23.82480
_cell_length_c                         12.72600
_cell_angle_alpha                      90
_cell_angle_beta                       90
_cell_angle_gamma                      90
_space_group_name_H-M_alt              'P 1'
_space_group_IT_number                 1

loop_
_space_group_symop_operation_xyz
   'x, y, z'

loop_
   _atom_site_label
   _atom_site_occupancy
   _atom_site_fract_x
   _atom_site_fract_y
   _atom_site_fract_z
   _atom_site_adp_type
   _atom_site_B_iso_or_equiv
   _atom_site_type_symbol
   C1         1.0     0.879425      0.026935      0.244455     Biso  1.000000 C
   C2         1.0     0.620579      0.473061      0.744475     Biso  1.000000 C
   C3         1.0     0.973065      0.379425      0.494455     Biso  1.000000 C
   C4         1.0     0.526935      0.120575      0.994454     Biso  1.000000 C
   C5         1.0     0.879421      0.973061      0.744475     Biso  1.000000 C
   C6         1.0     0.620571      0.526934      0.244460     Biso  1.000000 C
   C7         1.0     0.973066      0.620571      0.994460     Biso  1.000000 C
   C8         1.0     0.526935      0.879426      0.494455     Biso  1.000000 C
   C9         1.0     0.379429      0.526934      0.744460     Biso  1.000000 C
   C10        1.0     0.120571      0.973066      0.244460     Biso  1.000000 C
   C11        1.0     0.473066      0.879429      0.994460     Biso  1.000000 C
   C12        1.0     0.026934      0.620571      0.494460     Biso  1.000000 C
   C13        1.0     0.379429      0.473067      0.244460     Biso  1.000000 C
   C14        1.0     0.120571      0.026934      0.744461     Biso  1.000000 C
   C15        1.0     0.473065      0.120575      0.494455     Biso  1.000000 C
   C16        1.0     0.026934      0.379429      0.994460     Biso  1.000000 C
   C17        1.0     0.835162      0.072117      0.121444     Biso  1.000000 C
   C18        1.0     0.664840      0.427883      0.621450     Biso  1.000000 C
   C19        1.0     0.927887      0.335162      0.371445     Biso  1.000000 C
   C20        1.0     0.572113      0.164838      0.871445     Biso  1.000000 C
   C21        1.0     0.835159      0.927880      0.621448     Biso  1.000000 C
   C22        1.0     0.664839      0.572117      0.121443     Biso  1.000000 C
   C23        1.0     0.927881      0.664840      0.871443     Biso  1.000000 C
   C24        1.0     0.572113      0.835163      0.371445     Biso  1.000000 C
   C25        1.0     0.335161      0.572118      0.621444     Biso  1.000000 C
   C26        1.0     0.164840      0.927881      0.121443     Biso  1.000000 C
   C27        1.0     0.427883      0.835162      0.871443     Biso  1.000000 C
   C28        1.0     0.072112      0.664840      0.371444     Biso  1.000000 C
   C29        1.0     0.335161      0.427886      0.121443     Biso  1.000000 C
   C30        1.0     0.164839      0.072117      0.621443     Biso  1.000000 C
   C31        1.0     0.427883      0.164838      0.371444     Biso  1.000000 C
   C32        1.0     0.072113      0.335161      0.871444     Biso  1.000000 C
   C33        1.0     0.821385      0.016063      0.114360     Biso  1.000000 C
   C34        1.0     0.678628      0.483930      0.614384     Biso  1.000000 C
   C35        1.0     0.983934      0.321387      0.364362     Biso  1.000000 C
   C36        1.0     0.516066      0.178613      0.864362     Biso  1.000000 C
   C37        1.0     0.821372      0.983931      0.614381     Biso  1.000000 C
   C38        1.0     0.678616      0.516063      0.114358     Biso  1.000000 C
   C39        1.0     0.983935      0.678616      0.864358     Biso  1.000000 C
   C40        1.0     0.516066      0.821387      0.364363     Biso  1.000000 C
   C41        1.0     0.321384      0.516064      0.614358     Biso  1.000000 C
   C42        1.0     0.178616      0.983935      0.114358     Biso  1.000000 C
   C43        1.0     0.483937      0.821384      0.864358     Biso  1.000000 C
   C44        1.0     0.016066      0.678614      0.364361     Biso  1.000000 C
   C45        1.0     0.321385      0.483936      0.114359     Biso  1.000000 C
   C46        1.0     0.178616      0.016063      0.614358     Biso  1.000000 C
   C47        1.0     0.483937      0.178615      0.364360     Biso  1.000000 C
   C48        1.0     0.016066      0.321386      0.864360     Biso  1.000000 C
   C49        1.0     0.748240      0.908987      0.368278     Biso  1.000000 C
   C50        1.0     0.751760      0.591014      0.868279     Biso  1.000000 C
   C51        1.0     0.091013      0.248241      0.618278     Biso  1.000000 C
   C52        1.0     0.408987      0.251759      0.118278     Biso  1.000000 C
   C53        1.0     0.748240      0.091014      0.868279     Biso  1.000000 C
   C54        1.0     0.751760      0.408987      0.368278     Biso  1.000000 C
   C55        1.0     0.091013      0.751760      0.118278     Biso  1.000000 C
   C56        1.0     0.408987      0.748240      0.618278     Biso  1.000000 C
   C57        1.0     0.248240      0.408987      0.868278     Biso  1.000000 C
   C58        1.0     0.251759      0.091013      0.368279     Biso  1.000000 C
   C59        1.0     0.591013      0.748241      0.118278     Biso  1.000000 C
   C60        1.0     0.908987      0.751760      0.618278     Biso  1.000000 C
   C61        1.0     0.248240      0.591013      0.368278     Biso  1.000000 C
   C62        1.0     0.251759      0.908987      0.868279     Biso  1.000000 C
   C63        1.0     0.591013      0.251760      0.618278     Biso  1.000000 C
   C64        1.0     0.908987      0.248241      0.118278     Biso  1.000000 C
   C65        1.0     0.744534      0.173208      0.942517     Biso  1.000000 C
   C66        1.0     0.755464      0.326794      0.442512     Biso  1.000000 C
   C67        1.0     0.826793      0.244534      0.192515     Biso  1.000000 C
   C68        1.0     0.673207      0.255466      0.692515     Biso  1.000000 C
   C69        1.0     0.744535      0.826793      0.442516     Biso  1.000000 C
   C70        1.0     0.755467      0.673207      0.942516     Biso  1.000000 C
   C71        1.0     0.826793      0.755464      0.692511     Biso  1.000000 C
   C72        1.0     0.673207      0.744534      0.192515     Biso  1.000000 C
   C73        1.0     0.244536      0.673206      0.442512     Biso  1.000000 C
   C74        1.0     0.255466      0.826793      0.942515     Biso  1.000000 C
   C75        1.0     0.326793      0.744534      0.692515     Biso  1.000000 C
   C76        1.0     0.173206      0.755464      0.192512     Biso  1.000000 C
   C77        1.0     0.244535      0.326793      0.942516     Biso  1.000000 C
   C78        1.0     0.255466      0.173207      0.442515     Biso  1.000000 C
   C79        1.0     0.326793      0.255466      0.192515     Biso  1.000000 C
   C80        1.0     0.173207      0.244535      0.692516     Biso  1.000000 C
   C81        1.0     0.789557      0.827643      0.374761     Biso  1.000000 C
   C82        1.0     0.710446      0.672358      0.874763     Biso  1.000000 C
   C83        1.0     0.172357      0.289557      0.624761     Biso  1.000000 C
   C84        1.0     0.327643      0.210443      0.124761     Biso  1.000000 C
   C85        1.0     0.789556      0.172358      0.874763     Biso  1.000000 C
   C86        1.0     0.710446      0.327644      0.374762     Biso  1.000000 C
   C87        1.0     0.172356      0.710446      0.124762     Biso  1.000000 C
   C88        1.0     0.327643      0.789556      0.624761     Biso  1.000000 C
   C89        1.0     0.289557      0.327643      0.874762     Biso  1.000000 C
   C90        1.0     0.210444      0.172357      0.374761     Biso  1.000000 C
   C91        1.0     0.672357      0.789556      0.124761     Biso  1.000000 C
   C92        1.0     0.827644      0.710446      0.624762     Biso  1.000000 C
   C93        1.0     0.289554      0.672356      0.374763     Biso  1.000000 C
   C94        1.0     0.210444      0.827643      0.874761     Biso  1.000000 C
   C95        1.0     0.672357      0.210444      0.624761     Biso  1.000000 C
   C96        1.0     0.827643      0.289557      0.124761     Biso  1.000000 C
   C97        1.0     0.859712      0.882847      0.990109     Biso  1.000000 C
   C98        1.0     0.640288      0.617152      0.490110     Biso  1.000000 C
   C99        1.0     0.117152      0.359712      0.240109     Biso  1.000000 C
   C100       1.0     0.382848      0.140289      0.740110     Biso  1.000000 C
   C101       1.0     0.859712      0.117152      0.490109     Biso  1.000000 C
   C102       1.0     0.640288      0.382847      0.990109     Biso  1.000000 C
   C103       1.0     0.117153      0.640289      0.740110     Biso  1.000000 C
   C104       1.0     0.382847      0.859712      0.240109     Biso  1.000000 C
   C105       1.0     0.359712      0.382847      0.490109     Biso  1.000000 C
   C106       1.0     0.140289      0.117153      0.990110     Biso  1.000000 C
   C107       1.0     0.617153      0.859712      0.740110     Biso  1.000000 C
   C108       1.0     0.882848      0.640288      0.240110     Biso  1.000000 C
   C109       1.0     0.359712      0.617153      0.990110     Biso  1.000000 C
   C110       1.0     0.140288      0.882847      0.490109     Biso  1.000000 C
   C111       1.0     0.617153      0.140289      0.240109     Biso  1.000000 C
   C112       1.0     0.882847      0.359712      0.740109     Biso  1.000000 C
   C113       1.0     0.707747      0.143157      0.221881     Biso  1.000000 C
   C114       1.0     0.792252      0.356843      0.721878     Biso  1.000000 C
   C115       1.0     0.856843      0.207747      0.471880     Biso  1.000000 C
   C116       1.0     0.643157      0.292253      0.971878     Biso  1.000000 C
   C117       1.0     0.707748      0.856843      0.721878     Biso  1.000000 C
   C118       1.0     0.792252      0.643157      0.221878     Biso  1.000000 C
   C119       1.0     0.856843      0.792252      0.971878     Biso  1.000000 C
   C120       1.0     0.643157      0.707747      0.471880     Biso  1.000000 C
   C121       1.0     0.207748      0.643158      0.721878     Biso  1.000000 C
   C122       1.0     0.292253      0.856843      0.221880     Biso  1.000000 C
   C123       1.0     0.356843      0.707748      0.971878     Biso  1.000000 C
   C124       1.0     0.143157      0.792252      0.471878     Biso  1.000000 C
   C125       1.0     0.207748      0.356843      0.221878     Biso  1.000000 C
   C126       1.0     0.292252      0.143157      0.721876     Biso  1.000000 C
   C127       1.0     0.356843      0.292252      0.471878     Biso  1.000000 C
   C128       1.0     0.143157      0.207748      0.971878     Biso  1.000000 C
   C129       1.0     0.844570      0.805125      0.074904     Biso  1.000000 C
   C130       1.0     0.655429      0.694874      0.574905     Biso  1.000000 C
   C131       1.0     0.194875      0.344570      0.324904     Biso  1.000000 C
   C132       1.0     0.305126      0.155430      0.824906     Biso  1.000000 C
   C133       1.0     0.844571      0.194874      0.574905     Biso  1.000000 C
   C134       1.0     0.655430      0.305126      0.074904     Biso  1.000000 C
   C135       1.0     0.194874      0.655430      0.824904     Biso  1.000000 C
   C136       1.0     0.305126      0.844570      0.324904     Biso  1.000000 C
   C137       1.0     0.344570      0.305125      0.574905     Biso  1.000000 C
   C138       1.0     0.155430      0.194875      0.074904     Biso  1.000000 C
   C139       1.0     0.694875      0.844570      0.824904     Biso  1.000000 C
   C140       1.0     0.805126      0.655430      0.324904     Biso  1.000000 C
   C141       1.0     0.344570      0.694875      0.074905     Biso  1.000000 C
   C142       1.0     0.155430      0.805125      0.574904     Biso  1.000000 C
   C143       1.0     0.694874      0.155430      0.324904     Biso  1.000000 C
   C144       1.0     0.805125      0.344570      0.824904     Biso  1.000000 C
   C145       1.0     0.621639      0.975444      0.987560     Biso  1.000000 C
   C146       1.0     0.878361      0.524556      0.487560     Biso  1.000000 C
   C147       1.0     0.024557      0.121639      0.237560     Biso  1.000000 C
   C148       1.0     0.475444      0.378361      0.737560     Biso  1.000000 C
   C149       1.0     0.621639      0.024557      0.487560     Biso  1.000000 C
   C150       1.0     0.878361      0.475444      0.987561     Biso  1.000000 C
   C151       1.0     0.024556      0.878361      0.737559     Biso  1.000000 C
   C152       1.0     0.475443      0.621639      0.237560     Biso  1.000000 C
   C153       1.0     0.121639      0.475444      0.487561     Biso  1.000000 C
   C154       1.0     0.378361      0.024557      0.987561     Biso  1.000000 C
   C155       1.0     0.524557      0.621639      0.737560     Biso  1.000000 C
   C156       1.0     0.975443      0.878361      0.237561     Biso  1.000000 C
   C157       1.0     0.121639      0.524557      0.987561     Biso  1.000000 C
   C158       1.0     0.378361      0.975444      0.487560     Biso  1.000000 C
   C159       1.0     0.524557      0.378361      0.237561     Biso  1.000000 C
   C160       1.0     0.975443      0.121639      0.737560     Biso  1.000000 C
   C161       1.0     0.636615      0.935801      0.138810     Biso  1.000000 C
   C162       1.0     0.863385      0.564199      0.638810     Biso  1.000000 C
   C163       1.0     0.064199      0.136615      0.388810     Biso  1.000000 C
   C164       1.0     0.435800      0.363385      0.888809     Biso  1.000000 C
   C165       1.0     0.636615      0.064199      0.638810     Biso  1.000000 C
   C166       1.0     0.863385      0.435800      0.138810     Biso  1.000000 C
   C167       1.0     0.064199      0.863385      0.888810     Biso  1.000000 C
   C168       1.0     0.435800      0.636615      0.388810     Biso  1.000000 C
   C169       1.0     0.136615      0.435801      0.638810     Biso  1.000000 C
   C170       1.0     0.363385      0.064200      0.138810     Biso  1.000000 C
   C171       1.0     0.564200      0.636615      0.888810     Biso  1.000000 C
   C172       1.0     0.935800      0.863385      0.388810     Biso  1.000000 C
   C173       1.0     0.136615      0.564200      0.138810     Biso  1.000000 C
   C174       1.0     0.363385      0.935801      0.638810     Biso  1.000000 C
   C175       1.0     0.564200      0.363385      0.388810     Biso  1.000000 C
   C176       1.0     0.935800      0.136615      0.888810     Biso  1.000000 C
   C177       1.0     0.651139      0.991604      0.146319     Biso  1.000000 C
   C178       1.0     0.848861      0.508396      0.646319     Biso  1.000000 C
   C179       1.0     0.008396      0.151139      0.396319     Biso  1.000000 C
   C180       1.0     0.491603      0.348862      0.896320     Biso  1.000000 C
   C181       1.0     0.651138      0.008397      0.646320     Biso  1.000000 C
   C182       1.0     0.848862      0.491603      0.146320     Biso  1.000000 C
   C183       1.0     0.008396      0.848862      0.896319     Biso  1.000000 C
   C184       1.0     0.491603      0.651139      0.396320     Biso  1.000000 C
   C185       1.0     0.151138      0.491603      0.646320     Biso  1.000000 C
   C186       1.0     0.348862      0.008397      0.146320     Biso  1.000000 C
   C187       1.0     0.508397      0.651138      0.896320     Biso  1.000000 C
   C188       1.0     0.991603      0.848862      0.396320     Biso  1.000000 C
   C189       1.0     0.151138      0.508397      0.146320     Biso  1.000000 C
   C190       1.0     0.348862      0.991604      0.646319     Biso  1.000000 C
   C191       1.0     0.508397      0.348862      0.396320     Biso  1.000000 C
   C192       1.0     0.991603      0.151138      0.896320     Biso  1.000000 C
   H1         1.0     0.906967      0.017600      0.310252     Biso  1.000000 H
   H2         1.0     0.593042      0.482397      0.810265     Biso  1.000000 H
   H3         1.0     0.982400      0.406967      0.560253     Biso  1.000000 H
   H4         1.0     0.517600      0.093033      0.060252     Biso  1.000000 H
   H5         1.0     0.906958      0.982397      0.810265     Biso  1.000000 H
   H6         1.0     0.593035      0.517601      0.310248     Biso  1.000000 H
   H7         1.0     0.982399      0.593035      0.060248     Biso  1.000000 H
   H8         1.0     0.517600      0.906967      0.560252     Biso  1.000000 H
   H9         1.0     0.406965      0.517600      0.810248     Biso  1.000000 H
   H10        1.0     0.093035      0.982399      0.310247     Biso  1.000000 H
   H11        1.0     0.482399      0.906965      0.060248     Biso  1.000000 H
   H12        1.0     0.017601      0.593035      0.560248     Biso  1.000000 H
   H13        1.0     0.406965      0.482399      0.310248     Biso  1.000000 H
   H14        1.0     0.093035      0.017601      0.810248     Biso  1.000000 H
   H15        1.0     0.482400      0.093033      0.560252     Biso  1.000000 H
   H16        1.0     0.017601      0.406965      0.060249     Biso  1.000000 H
   H17        1.0     0.821696      0.107308      0.073405     Biso  1.000000 H
   H18        1.0     0.678299      0.392689      0.573394     Biso  1.000000 H
   H19        1.0     0.892691      0.321696      0.323403     Biso  1.000000 H
   H20        1.0     0.607310      0.178305      0.823403     Biso  1.000000 H
   H21        1.0     0.821701      0.892690      0.573393     Biso  1.000000 H
   H22        1.0     0.678304      0.607309      0.073404     Biso  1.000000 H
   H23        1.0     0.892690      0.678304      0.823403     Biso  1.000000 H
   H24        1.0     0.607310      0.821696      0.323403     Biso  1.000000 H
   H25        1.0     0.321696      0.607310      0.573402     Biso  1.000000 H
   H26        1.0     0.178304      0.892689      0.073403     Biso  1.000000 H
   H27        1.0     0.392691      0.821696      0.823404     Biso  1.000000 H
   H28        1.0     0.107309      0.678306      0.323402     Biso  1.000000 H
   H29        1.0     0.321695      0.392691      0.073403     Biso  1.000000 H
   H30        1.0     0.178304      0.107309      0.573404     Biso  1.000000 H
   H31        1.0     0.392691      0.178304      0.323404     Biso  1.000000 H
   H32        1.0     0.107309      0.321695      0.823403     Biso  1.000000 H
   H33        1.0     0.793259      0.994837      0.060318     Biso  1.000000 H
   H34        1.0     0.706750      0.505162      0.560338     Biso  1.000000 H
   H35        1.0     0.005164      0.293259      0.310318     Biso  1.000000 H
   H36        1.0     0.494836      0.206741      0.810318     Biso  1.000000 H
   H37        1.0     0.793251      0.005162      0.560339     Biso  1.000000 H
   H38        1.0     0.706741      0.494837      0.060317     Biso  1.000000 H
   H39        1.0     0.005163      0.706741      0.810318     Biso  1.000000 H
   H40        1.0     0.494836      0.793259      0.310318     Biso  1.000000 H
   H41        1.0     0.293260      0.494837      0.560318     Biso  1.000000 H
   H42        1.0     0.206741      0.005163      0.060317     Biso  1.000000 H
   H43        1.0     0.505163      0.793259      0.810317     Biso  1.000000 H
   H44        1.0     0.994835      0.706742      0.310317     Biso  1.000000 H
   H45        1.0     0.293258      0.505166      0.060317     Biso  1.000000 H
   H46        1.0     0.206741      0.994837      0.560317     Biso  1.000000 H
   H47        1.0     0.505163      0.206741      0.310318     Biso  1.000000 H
   H48        1.0     0.994836      0.293258      0.810317     Biso  1.000000 H
   H49        1.0     0.738622      0.952132      0.347488     Biso  1.000000 H
   H50        1.0     0.761377      0.547869      0.847489     Biso  1.000000 H
   H51        1.0     0.047868      0.238622      0.597489     Biso  1.000000 H
   H52        1.0     0.452132      0.261376      0.097490     Biso  1.000000 H
   H53        1.0     0.738623      0.047869      0.847488     Biso  1.000000 H
   H54        1.0     0.761378      0.452132      0.347489     Biso  1.000000 H
   H55        1.0     0.047868      0.761378      0.097489     Biso  1.000000 H
   H56        1.0     0.452132      0.738623      0.597488     Biso  1.000000 H
   H57        1.0     0.238622      0.452132      0.847488     Biso  1.000000 H
   H58        1.0     0.261376      0.047868      0.347490     Biso  1.000000 H
   H59        1.0     0.547867      0.738624      0.097490     Biso  1.000000 H
   H60        1.0     0.952132      0.761378      0.597489     Biso  1.000000 H
   H61        1.0     0.238622      0.547868      0.347489     Biso  1.000000 H
   H62        1.0     0.261376      0.952133      0.847490     Biso  1.000000 H
   H63        1.0     0.547868      0.261376      0.597490     Biso  1.000000 H
   H64        1.0     0.952132      0.238624      0.097490     Biso  1.000000 H
   H65        1.0     0.729716      0.206688      0.993209     Biso  1.000000 H
   H66        1.0     0.770283      0.293313      0.493207     Biso  1.000000 H
   H67        1.0     0.793313      0.229717      0.243205     Biso  1.000000 H
   H68        1.0     0.706687      0.270283      0.743207     Biso  1.000000 H
   H69        1.0     0.729717      0.793313      0.493207     Biso  1.000000 H
   H70        1.0     0.770285      0.706688      0.993209     Biso  1.000000 H
   H71        1.0     0.793312      0.770284      0.743206     Biso  1.000000 H
   H72        1.0     0.706687      0.729717      0.243206     Biso  1.000000 H
   H73        1.0     0.229717      0.706688      0.493208     Biso  1.000000 H
   H74        1.0     0.270284      0.793313      0.993206     Biso  1.000000 H
   H75        1.0     0.293313      0.729716      0.743206     Biso  1.000000 H
   H76        1.0     0.206687      0.770283      0.243207     Biso  1.000000 H
   H77        1.0     0.229717      0.293313      0.993207     Biso  1.000000 H
   H78        1.0     0.270284      0.206688      0.493206     Biso  1.000000 H
   H79        1.0     0.293313      0.270283      0.243207     Biso  1.000000 H
   H80        1.0     0.206687      0.229717      0.743207     Biso  1.000000 H
   H81        1.0     0.820006      0.795015      0.357497     Biso  1.000000 H
   H82        1.0     0.679996      0.704987      0.857497     Biso  1.000000 H
   H83        1.0     0.204985      0.320006      0.607497     Biso  1.000000 H
   H84        1.0     0.295015      0.179995      0.107497     Biso  1.000000 H
   H85        1.0     0.820005      0.204986      0.857499     Biso  1.000000 H
   H86        1.0     0.679994      0.295014      0.357495     Biso  1.000000 H
   H87        1.0     0.204986      0.679995      0.107495     Biso  1.000000 H
   H88        1.0     0.295015      0.820005      0.607497     Biso  1.000000 H
   H89        1.0     0.320006      0.295015      0.857497     Biso  1.000000 H
   H90        1.0     0.179995      0.204985      0.357497     Biso  1.000000 H
   H91        1.0     0.704985      0.820005      0.107497     Biso  1.000000 H
   H92        1.0     0.795014      0.679995      0.607495     Biso  1.000000 H
   H93        1.0     0.320006      0.704986      0.357496     Biso  1.000000 H
   H94        1.0     0.179995      0.795015      0.857497     Biso  1.000000 H
   H95        1.0     0.704985      0.179995      0.607497     Biso  1.000000 H
   H96        1.0     0.795015      0.320005      0.107497     Biso  1.000000 H
   H97        1.0     0.864429      0.927262      0.973017     Biso  1.000000 H
   H98        1.0     0.635571      0.572738      0.473017     Biso  1.000000 H
   H99        1.0     0.072738      0.364429      0.223017     Biso  1.000000 H
   H100       1.0     0.427262      0.135571      0.723018     Biso  1.000000 H
   H101       1.0     0.864429      0.072738      0.473017     Biso  1.000000 H
   H102       1.0     0.635571      0.427262      0.973017     Biso  1.000000 H
   H103       1.0     0.072738      0.635571      0.723017     Biso  1.000000 H
   H104       1.0     0.427261      0.864429      0.223017     Biso  1.000000 H
   H105       1.0     0.364429      0.427261      0.473017     Biso  1.000000 H
   H106       1.0     0.135571      0.072739      0.973017     Biso  1.000000 H
   H107       1.0     0.572739      0.864429      0.723017     Biso  1.000000 H
   H108       1.0     0.927262      0.635571      0.223017     Biso  1.000000 H
   H109       1.0     0.364429      0.572738      0.973017     Biso  1.000000 H
   H110       1.0     0.135571      0.927261      0.473017     Biso  1.000000 H
   H111       1.0     0.572739      0.135571      0.223017     Biso  1.000000 H
   H112       1.0     0.927261      0.364429      0.723017     Biso  1.000000 H
   H113       1.0     0.748223      0.139789      0.183500     Biso  1.000000 H
   H114       1.0     0.751778      0.360212      0.683502     Biso  1.000000 H
   H115       1.0     0.860211      0.248222      0.433502     Biso  1.000000 H
   H116       1.0     0.639789      0.251778      0.933502     Biso  1.000000 H
   H117       1.0     0.748222      0.860212      0.683502     Biso  1.000000 H
   H118       1.0     0.751778      0.639788      0.183502     Biso  1.000000 H
   H119       1.0     0.860212      0.751778      0.933502     Biso  1.000000 H
   H120       1.0     0.639789      0.748222      0.433502     Biso  1.000000 H
   H121       1.0     0.248222      0.639788      0.683503     Biso  1.000000 H
   H122       1.0     0.251777      0.860211      0.183500     Biso  1.000000 H
   H123       1.0     0.360211      0.748222      0.933502     Biso  1.000000 H
   H124       1.0     0.139788      0.751778      0.433502     Biso  1.000000 H
   H125       1.0     0.248222      0.360211      0.183502     Biso  1.000000 H
   H126       1.0     0.251779      0.139789      0.683500     Biso  1.000000 H
   H127       1.0     0.360213      0.251778      0.433502     Biso  1.000000 H
   H128       1.0     0.139788      0.248222      0.933502     Biso  1.000000 H
   H129       1.0     0.835055      0.777479      0.140397     Biso  1.000000 H
   H130       1.0     0.664945      0.722520      0.640398     Biso  1.000000 H
   H131       1.0     0.222521      0.335055      0.390397     Biso  1.000000 H
   H132       1.0     0.277479      0.164945      0.890396     Biso  1.000000 H
   H133       1.0     0.835055      0.222520      0.640398     Biso  1.000000 H
   H134       1.0     0.664945      0.277479      0.140397     Biso  1.000000 H
   H135       1.0     0.222521      0.664945      0.890398     Biso  1.000000 H
   H136       1.0     0.277479      0.835055      0.390398     Biso  1.000000 H
   H137       1.0     0.335056      0.277479      0.640397     Biso  1.000000 H
   H138       1.0     0.164945      0.222521      0.140397     Biso  1.000000 H
   H139       1.0     0.722521      0.835056      0.890398     Biso  1.000000 H
   H140       1.0     0.777479      0.664945      0.390397     Biso  1.000000 H
   H141       1.0     0.335056      0.722521      0.140398     Biso  1.000000 H
   H142       1.0     0.164945      0.777479      0.640397     Biso  1.000000 H
   H143       1.0     0.722521      0.164945      0.390399     Biso  1.000000 H
   H144       1.0     0.777479      0.335056      0.890397     Biso  1.000000 H
   H145       1.0     0.609600      0.981729      0.906037     Biso  1.000000 H
   H146       1.0     0.890400      0.518271      0.406037     Biso  1.000000 H
   H147       1.0     0.018271      0.109600      0.156037     Biso  1.000000 H
   H148       1.0     0.481729      0.390400      0.656038     Biso  1.000000 H
   H149       1.0     0.609600      0.018271      0.406037     Biso  1.000000 H
   H150       1.0     0.890400      0.481729      0.906038     Biso  1.000000 H
   H151       1.0     0.018271      0.890400      0.656037     Biso  1.000000 H
   H152       1.0     0.481729      0.609600      0.156038     Biso  1.000000 H
   H153       1.0     0.109600      0.481729      0.406038     Biso  1.000000 H
   H154       1.0     0.390400      0.018271      0.906038     Biso  1.000000 H
   H155       1.0     0.518271      0.609600      0.656037     Biso  1.000000 H
   H156       1.0     0.981729      0.890400      0.156038     Biso  1.000000 H
   H157       1.0     0.109600      0.518271      0.906038     Biso  1.000000 H
   H158       1.0     0.390400      0.981729      0.406037     Biso  1.000000 H
   H159       1.0     0.518271      0.390400      0.156038     Biso  1.000000 H
   H160       1.0     0.981729      0.109600      0.656038     Biso  1.000000 H
   H161       1.0     0.638128      0.902863      0.197623     Biso  1.000000 H
   H162       1.0     0.861872      0.597137      0.697623     Biso  1.000000 H
   H163       1.0     0.097137      0.138128      0.447623     Biso  1.000000 H
   H164       1.0     0.402862      0.361872      0.947622     Biso  1.000000 H
   H165       1.0     0.638128      0.097138      0.697623     Biso  1.000000 H
   H166       1.0     0.861872      0.402862      0.197623     Biso  1.000000 H
   H167       1.0     0.097137      0.861872      0.947623     Biso  1.000000 H
   H168       1.0     0.402862      0.638128      0.447623     Biso  1.000000 H
   H169       1.0     0.138128      0.402862      0.697623     Biso  1.000000 H
   H170       1.0     0.361872      0.097138      0.197623     Biso  1.000000 H
   H171       1.0     0.597138      0.638128      0.947623     Biso  1.000000 H
   H172       1.0     0.902862      0.861872      0.447623     Biso  1.000000 H
   H173       1.0     0.138128      0.597138      0.197624     Biso  1.000000 H
   H174       1.0     0.361872      0.902863      0.697623     Biso  1.000000 H
   H175       1.0     0.597138      0.361872      0.447623     Biso  1.000000 H
   H176       1.0     0.902862      0.138128      0.947623     Biso  1.000000 H
   H177       1.0     0.667542      0.015409      0.212256     Biso  1.000000 H
   H178       1.0     0.832458      0.484592      0.712255     Biso  1.000000 H
   H179       1.0     0.984592      0.167542      0.462255     Biso  1.000000 H
   H180       1.0     0.515406      0.332458      0.962258     Biso  1.000000 H
   H181       1.0     0.667542      0.984593      0.712257     Biso  1.000000 H
   H182       1.0     0.832458      0.515407      0.212258     Biso  1.000000 H
   H183       1.0     0.984592      0.832458      0.962255     Biso  1.000000 H
   H184       1.0     0.515406      0.667542      0.462258     Biso  1.000000 H
   H185       1.0     0.167542      0.515406      0.712258     Biso  1.000000 H
   H186       1.0     0.332458      0.984594      0.212258     Biso  1.000000 H
   H187       1.0     0.484594      0.667542      0.962258     Biso  1.000000 H
   H188       1.0     0.015406      0.832458      0.462258     Biso  1.000000 H
   H189       1.0     0.167542      0.484593      0.212258     Biso  1.000000 H
   H190       1.0     0.332458      0.015409      0.712256     Biso  1.000000 H
   H191       1.0     0.484594      0.332458      0.462257     Biso  1.000000 H
   H192       1.0     0.015406      0.167542      0.962258     Biso  1.000000 H
   N1         1.0     0.849702      0.987476      0.192747     Biso  1.000000 N
   N2         1.0     0.650306      0.512519      0.692761     Biso  1.000000 N
   N3         1.0     0.012521      0.349700      0.442752     Biso  1.000000 N
   N4         1.0     0.487479      0.150301      0.942752     Biso  1.000000 N
   N5         1.0     0.849694      0.012519      0.692760     Biso  1.000000 N
   N6         1.0     0.650299      0.487475      0.192744     Biso  1.000000 N
   N7         1.0     0.012522      0.650302      0.942748     Biso  1.000000 N
   N8         1.0     0.487479      0.849700      0.442752     Biso  1.000000 N
   N9         1.0     0.349702      0.487476      0.692744     Biso  1.000000 N
   N10        1.0     0.150301      0.012521      0.192747     Biso  1.000000 N
   N11        1.0     0.512525      0.849702      0.942744     Biso  1.000000 N
   N12        1.0     0.987478      0.650302      0.442748     Biso  1.000000 N
   N13        1.0     0.349699      0.512523      0.192748     Biso  1.000000 N
   N14        1.0     0.150301      0.987478      0.692750     Biso  1.000000 N
   N15        1.0     0.512521      0.150300      0.442753     Biso  1.000000 N
   N16        1.0     0.987477      0.349699      0.942749     Biso  1.000000 N
   N17        1.0     0.871926      0.078825      0.204522     Biso  1.000000 N
   N18        1.0     0.628074      0.421172      0.704520     Biso  1.000000 N
   N19        1.0     0.921175      0.371926      0.454521     Biso  1.000000 N
   N20        1.0     0.578825      0.128075      0.954521     Biso  1.000000 N
   N21        1.0     0.871926      0.921172      0.704521     Biso  1.000000 N
   N22        1.0     0.628074      0.578826      0.204520     Biso  1.000000 N
   N23        1.0     0.921173      0.628075      0.954520     Biso  1.000000 N
   N24        1.0     0.578826      0.871926      0.454521     Biso  1.000000 N
   N25        1.0     0.371925      0.578827      0.704520     Biso  1.000000 N
   N26        1.0     0.128075      0.921172      0.204520     Biso  1.000000 N
   N27        1.0     0.421173      0.871926      0.954520     Biso  1.000000 N
   N28        1.0     0.078827      0.628075      0.454518     Biso  1.000000 N
   N29        1.0     0.371925      0.421174      0.204518     Biso  1.000000 N
   N30        1.0     0.128075      0.078827      0.704520     Biso  1.000000 N
   N31        1.0     0.421175      0.128074      0.454522     Biso  1.000000 N
   N32        1.0     0.078827      0.371925      0.954519     Biso  1.000000 N
   N33        1.0     0.791773      0.879982      0.327690     Biso  1.000000 N
   N34        1.0     0.708228      0.620020      0.827691     Biso  1.000000 N
   N35        1.0     0.120019      0.291773      0.577690     Biso  1.000000 N
   N36        1.0     0.379981      0.208227      0.077690     Biso  1.000000 N
   N37        1.0     0.791773      0.120020      0.827691     Biso  1.000000 N
   N38        1.0     0.708227      0.379981      0.327690     Biso  1.000000 N
   N39        1.0     0.120019      0.708227      0.077690     Biso  1.000000 N
   N40        1.0     0.379981      0.791773      0.577691     Biso  1.000000 N
   N41        1.0     0.291773      0.379981      0.827691     Biso  1.000000 N
   N42        1.0     0.208227      0.120019      0.327691     Biso  1.000000 N
   N43        1.0     0.620019      0.791773      0.077691     Biso  1.000000 N
   N44        1.0     0.879981      0.708227      0.577690     Biso  1.000000 N
   N45        1.0     0.291773      0.620019      0.327690     Biso  1.000000 N
   N46        1.0     0.208227      0.879982      0.827690     Biso  1.000000 N
   N47        1.0     0.620019      0.208227      0.577690     Biso  1.000000 N
   N48        1.0     0.879981      0.291773      0.077690     Biso  1.000000 N
   N49        1.0     0.718288      0.121418      0.938096     Biso  1.000000 N
   N50        1.0     0.781712      0.378582      0.438095     Biso  1.000000 N
   N51        1.0     0.878582      0.218288      0.188095     Biso  1.000000 N
   N52        1.0     0.621418      0.281712      0.688095     Biso  1.000000 N
   N53        1.0     0.718288      0.878582      0.438095     Biso  1.000000 N
   N54        1.0     0.781713      0.621418      0.938096     Biso  1.000000 N
   N55        1.0     0.878581      0.781712      0.688095     Biso  1.000000 N
   N56        1.0     0.621418      0.718288      0.188095     Biso  1.000000 N
   N57        1.0     0.218288      0.621418      0.438096     Biso  1.000000 N
   N58        1.0     0.281712      0.878583      0.938095     Biso  1.000000 N
   N59        1.0     0.378582      0.718288      0.688095     Biso  1.000000 N
   N60        1.0     0.121418      0.781712      0.188095     Biso  1.000000 N
   N61        1.0     0.218288      0.378582      0.938095     Biso  1.000000 N
   N62        1.0     0.281712      0.121418      0.438095     Biso  1.000000 N
   N63        1.0     0.378582      0.281712      0.188095     Biso  1.000000 N
   N64        1.0     0.121418      0.218288      0.688095     Biso  1.000000 N
   N65        1.0     0.658224      0.133640      0.168120     Biso  1.000000 N
   N66        1.0     0.841776      0.366360      0.668120     Biso  1.000000 N
   N67        1.0     0.866360      0.158224      0.418120     Biso  1.000000 N
   N68        1.0     0.633640      0.341776      0.918121     Biso  1.000000 N
   N69        1.0     0.658224      0.866360      0.668120     Biso  1.000000 N
   N70        1.0     0.841776      0.633640      0.168120     Biso  1.000000 N
   N71        1.0     0.866360      0.841776      0.918121     Biso  1.000000 N
   N72        1.0     0.633640      0.658224      0.418120     Biso  1.000000 N
   N73        1.0     0.158224      0.633640      0.668120     Biso  1.000000 N
   N74        1.0     0.341776      0.866360      0.168120     Biso  1.000000 N
   N75        1.0     0.366360      0.658224      0.918120     Biso  1.000000 N
   N76        1.0     0.133640      0.841776      0.418120     Biso  1.000000 N
   N77        1.0     0.158224      0.366360      0.168120     Biso  1.000000 N
   N78        1.0     0.341778      0.133640      0.668121     Biso  1.000000 N
   N79        1.0     0.366360      0.341776      0.418120     Biso  1.000000 N
   N80        1.0     0.133640      0.158224      0.918120     Biso  1.000000 N
   N81        1.0     0.846520      0.862854      0.086155     Biso  1.000000 N
   N82        1.0     0.653480      0.637146      0.586155     Biso  1.000000 N
   N83        1.0     0.137146      0.346520      0.336155     Biso  1.000000 N
   N84        1.0     0.362855      0.153481      0.836154     Biso  1.000000 N
   N85        1.0     0.846520      0.137146      0.586155     Biso  1.000000 N
   N86        1.0     0.653481      0.362854      0.086155     Biso  1.000000 N
   N87        1.0     0.137146      0.653481      0.836155     Biso  1.000000 N
   N88        1.0     0.362854      0.846519      0.336155     Biso  1.000000 N
   N89        1.0     0.346520      0.362854      0.586155     Biso  1.000000 N
   N90        1.0     0.153481      0.137146      0.086154     Biso  1.000000 N
   N91        1.0     0.637146      0.846520      0.836154     Biso  1.000000 N
   N92        1.0     0.862854      0.653481      0.336155     Biso  1.000000 N
   N93        1.0     0.346520      0.637146      0.086155     Biso  1.000000 N
   N94        1.0     0.153480      0.862854      0.586155     Biso  1.000000 N
   N95        1.0     0.637146      0.153481      0.336155     Biso  1.000000 N
   N96        1.0     0.862854      0.346520      0.836155     Biso  1.000000 N
   N97        1.0     0.641518      0.016696      0.049952     Biso  1.000000 N
   N98        1.0     0.858482      0.483304      0.549952     Biso  1.000000 N
   N99        1.0     0.983304      0.141518      0.299952     Biso  1.000000 N
   N100       1.0     0.516695      0.358482      0.799954     Biso  1.000000 N
   N101       1.0     0.641518      0.983304      0.549953     Biso  1.000000 N
   N102       1.0     0.858482      0.516696      0.049953     Biso  1.000000 N
   N103       1.0     0.983304      0.858482      0.799952     Biso  1.000000 N
   N104       1.0     0.516696      0.641518      0.299953     Biso  1.000000 N
   N105       1.0     0.141518      0.516696      0.549953     Biso  1.000000 N
   N106       1.0     0.358482      0.983305      0.049953     Biso  1.000000 N
   N107       1.0     0.483305      0.641518      0.799953     Biso  1.000000 N
   N108       1.0     0.016695      0.858482      0.299953     Biso  1.000000 N
   N109       1.0     0.141518      0.483304      0.049953     Biso  1.000000 N
   N110       1.0     0.358482      0.016696      0.549952     Biso  1.000000 N
   N111       1.0     0.483304      0.358482      0.299953     Biso  1.000000 N
   N112       1.0     0.016696      0.141518      0.799953     Biso  1.000000 N
   N113       1.0     0.617920      0.925667      0.037657     Biso  1.000000 N
   N114       1.0     0.882080      0.574333      0.537657     Biso  1.000000 N
   N115       1.0     0.074333      0.117920      0.287657     Biso  1.000000 N
   N116       1.0     0.425666      0.382081      0.787657     Biso  1.000000 N
   N117       1.0     0.617920      0.074333      0.537658     Biso  1.000000 N
   N118       1.0     0.882080      0.425667      0.037658     Biso  1.000000 N
   N119       1.0     0.074333      0.882080      0.787657     Biso  1.000000 N
   N120       1.0     0.425666      0.617920      0.287657     Biso  1.000000 N
   N121       1.0     0.117920      0.425667      0.537658     Biso  1.000000 N
   N122       1.0     0.382080      0.074334      0.037657     Biso  1.000000 N
   N123       1.0     0.574334      0.617919      0.787657     Biso  1.000000 N
   N124       1.0     0.925667      0.882080      0.287657     Biso  1.000000 N
   N125       1.0     0.117920      0.574333      0.037658     Biso  1.000000 N
   N126       1.0     0.382080      0.925667      0.537657     Biso  1.000000 N
   N127       1.0     0.574333      0.382080      0.287658     Biso  1.000000 N
   N128       1.0     0.925666      0.117919      0.787657     Biso  1.000000 N
   Zn1        1.0     0.850823      0.904743      0.224025     Biso  1.000000 Zn
   Zn2        1.0     0.649179      0.595254      0.724027     Biso  1.000000 Zn
   Zn3        1.0     0.095257      0.350824      0.474025     Biso  1.000000 Zn
   Zn4        1.0     0.404743      0.149177      0.974025     Biso  1.000000 Zn
   Zn5        1.0     0.850821      0.095254      0.724028     Biso  1.000000 Zn
   Zn6        1.0     0.649177      0.404743      0.224024     Biso  1.000000 Zn
   Zn7        1.0     0.095256      0.649176      0.974024     Biso  1.000000 Zn
   Zn8        1.0     0.404744      0.850824      0.474025     Biso  1.000000 Zn
   Zn9        1.0     0.350824      0.404743      0.724025     Biso  1.000000 Zn
   Zn10       1.0     0.149177      0.095256      0.224025     Biso  1.000000 Zn
   Zn11       1.0     0.595257      0.850824      0.974026     Biso  1.000000 Zn
   Zn12       1.0     0.904743      0.649176      0.474025     Biso  1.000000 Zn
   Zn13       1.0     0.350824      0.595257      0.224025     Biso  1.000000 Zn
   Zn14       1.0     0.149176      0.904743      0.724025     Biso  1.000000 Zn
   Zn15       1.0     0.595257      0.149176      0.474025     Biso  1.000000 Zn
   Zn16       1.0     0.904743      0.350824      0.974025     Biso  1.000000 Zn
   Zn17       1.0     0.650145      0.099744      0.022330     Biso  1.000000 Zn
   Zn18       1.0     0.849855      0.400256      0.522330     Biso  1.000000 Zn
   Zn19       1.0     0.900255      0.150145      0.272329     Biso  1.000000 Zn
   Zn20       1.0     0.599744      0.349854      0.772330     Biso  1.000000 Zn
   Zn21       1.0     0.650145      0.900256      0.522330     Biso  1.000000 Zn
   Zn22       1.0     0.849855      0.599745      0.022331     Biso  1.000000 Zn
   Zn23       1.0     0.900256      0.849854      0.772330     Biso  1.000000 Zn
   Zn24       1.0     0.599744      0.650145      0.272329     Biso  1.000000 Zn
   Zn25       1.0     0.150145      0.599745      0.522330     Biso  1.000000 Zn
   Zn26       1.0     0.349856      0.900256      0.022330     Biso  1.000000 Zn
   Zn27       1.0     0.400256      0.650145      0.772331     Biso  1.000000 Zn
   Zn28       1.0     0.099744      0.849855      0.272331     Biso  1.000000 Zn
   Zn29       1.0     0.150145      0.400256      0.022330     Biso  1.000000 Zn
   Zn30       1.0     0.349856      0.099745      0.522330     Biso  1.000000 Zn
   Zn31       1.0     0.400255      0.349856      0.272330     Biso  1.000000 Zn
   Zn32       1.0     0.099745      0.150145      0.772330     Biso  1.000000 Zn
