data_ZIF
_cell_length_a                         23.43299
_cell_length_b                         23.43307
_cell_length_c                         12.49055
_cell_angle_alpha                      89.99895
_cell_angle_beta                       89.99995
_cell_angle_gamma                      89.99859
_space_group_name_H-M_alt              'P 1'
_space_group_IT_number                 1

loop_
_space_group_symop_operation_xyz
   'x, y, z'

loop_
   _atom_site_label
   _atom_site_occupancy
   _atom_site_fract_x
   _atom_site_fract_y
   _atom_site_fract_z
   _atom_site_adp_type
   _atom_site_B_iso_or_equiv
   _atom_site_type_symbol
   C1         1.0     0.879418      0.026722      0.242488     Biso  1.000000 C
   C2         1.0     0.620584      0.473287      0.742482     Biso  1.000000 C
   C3         1.0     0.973275      0.379421      0.492488     Biso  1.000000 C
   C4         1.0     0.526722      0.120585      0.992485     Biso  1.000000 C
   C5         1.0     0.879429      0.973233      0.742459     Biso  1.000000 C
   C6         1.0     0.620584      0.526724      0.242487     Biso  1.000000 C
   C7         1.0     0.973282      0.620587      0.992489     Biso  1.000000 C
   C8         1.0     0.526715      0.879416      0.492486     Biso  1.000000 C
   C9         1.0     0.379416      0.526721      0.742487     Biso  1.000000 C
   C10        1.0     0.120576      0.973279      0.242486     Biso  1.000000 C
   C11        1.0     0.473277      0.879414      0.992486     Biso  1.000000 C
   C12        1.0     0.026763      0.620571      0.492448     Biso  1.000000 C
   C13        1.0     0.379419      0.473276      0.242488     Biso  1.000000 C
   C14        1.0     0.120580      0.026721      0.742486     Biso  1.000000 C
   C15        1.0     0.473277      0.120587      0.492487     Biso  1.000000 C
   C16        1.0     0.026713      0.379418      0.992484     Biso  1.000000 C
   C17        1.0     0.834019      0.072939      0.117923     Biso  1.000000 C
   C18        1.0     0.665982      0.427067      0.617916     Biso  1.000000 C
   C19        1.0     0.927059      0.334023      0.367927     Biso  1.000000 C
   C20        1.0     0.572936      0.165985      0.867918     Biso  1.000000 C
   C21        1.0     0.834011      0.927039      0.617895     Biso  1.000000 C
   C22        1.0     0.665984      0.572936      0.117918     Biso  1.000000 C
   C23        1.0     0.927068      0.665988      0.867918     Biso  1.000000 C
   C24        1.0     0.572928      0.834018      0.367912     Biso  1.000000 C
   C25        1.0     0.334017      0.572937      0.617918     Biso  1.000000 C
   C26        1.0     0.165974      0.927061      0.117924     Biso  1.000000 C
   C27        1.0     0.427063      0.834015      0.867921     Biso  1.000000 C
   C28        1.0     0.072956      0.665992      0.367888     Biso  1.000000 C
   C29        1.0     0.334019      0.427064      0.117922     Biso  1.000000 C
   C30        1.0     0.165977      0.072940      0.617924     Biso  1.000000 C
   C31        1.0     0.427061      0.165986      0.367919     Biso  1.000000 C
   C32        1.0     0.072929      0.334020      0.867913     Biso  1.000000 C
   C33        1.0     0.819224      0.016170      0.111498     Biso  1.000000 C
   C34        1.0     0.680779      0.483834      0.611493     Biso  1.000000 C
   C35        1.0     0.983827      0.319225      0.361502     Biso  1.000000 C
   C36        1.0     0.516169      0.180779      0.861495     Biso  1.000000 C
   C37        1.0     0.819218      0.983811      0.611506     Biso  1.000000 C
   C38        1.0     0.680776      0.516168      0.111495     Biso  1.000000 C
   C39        1.0     0.983834      0.680782      0.861499     Biso  1.000000 C
   C40        1.0     0.516161      0.819222      0.361498     Biso  1.000000 C
   C41        1.0     0.319222      0.516168      0.611496     Biso  1.000000 C
   C42        1.0     0.180772      0.983829      0.111499     Biso  1.000000 C
   C43        1.0     0.483831      0.819222      0.861496     Biso  1.000000 C
   C44        1.0     0.016185      0.680784      0.361500     Biso  1.000000 C
   C45        1.0     0.319224      0.483832      0.111502     Biso  1.000000 C
   C46        1.0     0.180774      0.016173      0.611499     Biso  1.000000 C
   C47        1.0     0.483830      0.180780      0.361492     Biso  1.000000 C
   C48        1.0     0.016162      0.319224      0.861499     Biso  1.000000 C
   C49        1.0     0.748215      0.907682      0.367043     Biso  1.000000 C
   C50        1.0     0.751785      0.592321      0.867044     Biso  1.000000 C
   C51        1.0     0.092316      0.248214      0.617047     Biso  1.000000 C
   C52        1.0     0.407686      0.251784      0.117050     Biso  1.000000 C
   C53        1.0     0.748217      0.092311      0.867046     Biso  1.000000 C
   C54        1.0     0.751785      0.407685      0.367043     Biso  1.000000 C
   C55        1.0     0.092325      0.751783      0.117040     Biso  1.000000 C
   C56        1.0     0.407678      0.748214      0.617044     Biso  1.000000 C
   C57        1.0     0.248212      0.407679      0.867044     Biso  1.000000 C
   C58        1.0     0.251783      0.092312      0.367050     Biso  1.000000 C
   C59        1.0     0.592318      0.748218      0.117045     Biso  1.000000 C
   C60        1.0     0.907689      0.751774      0.617037     Biso  1.000000 C
   C61        1.0     0.248222      0.592314      0.367048     Biso  1.000000 C
   C62        1.0     0.251782      0.907682      0.867041     Biso  1.000000 C
   C63        1.0     0.592315      0.251790      0.617046     Biso  1.000000 C
   C64        1.0     0.907679      0.248217      0.117041     Biso  1.000000 C
   C65        1.0     0.745214      0.175363      0.944985     Biso  1.000000 C
   C66        1.0     0.754793      0.324632      0.444984     Biso  1.000000 C
   C67        1.0     0.824628      0.245210      0.194987     Biso  1.000000 C
   C68        1.0     0.675369      0.254795      0.694984     Biso  1.000000 C
   C69        1.0     0.745208      0.824631      0.444991     Biso  1.000000 C
   C70        1.0     0.754791      0.675372      0.944986     Biso  1.000000 C
   C71        1.0     0.824638      0.754779      0.694980     Biso  1.000000 C
   C72        1.0     0.675368      0.745211      0.194997     Biso  1.000000 C
   C73        1.0     0.245212      0.675368      0.444987     Biso  1.000000 C
   C74        1.0     0.254792      0.824632      0.944995     Biso  1.000000 C
   C75        1.0     0.324626      0.745205      0.694985     Biso  1.000000 C
   C76        1.0     0.175370      0.754794      0.195001     Biso  1.000000 C
   C77        1.0     0.245204      0.324627      0.944985     Biso  1.000000 C
   C78        1.0     0.254788      0.175365      0.444993     Biso  1.000000 C
   C79        1.0     0.324633      0.254793      0.194989     Biso  1.000000 C
   C80        1.0     0.175369      0.245206      0.694987     Biso  1.000000 C
   C81        1.0     0.790918      0.825337      0.375950     Biso  1.000000 C
   C82        1.0     0.709080      0.674666      0.875945     Biso  1.000000 C
   C83        1.0     0.174658      0.290918      0.625949     Biso  1.000000 C
   C84        1.0     0.325341      0.209085      0.125947     Biso  1.000000 C
   C85        1.0     0.790921      0.174653      0.875938     Biso  1.000000 C
   C86        1.0     0.709082      0.325343      0.375948     Biso  1.000000 C
   C87        1.0     0.174674      0.709087      0.125954     Biso  1.000000 C
   C88        1.0     0.325334      0.790919      0.625951     Biso  1.000000 C
   C89        1.0     0.290917      0.325336      0.875951     Biso  1.000000 C
   C90        1.0     0.209081      0.174659      0.375945     Biso  1.000000 C
   C91        1.0     0.674663      0.790918      0.125949     Biso  1.000000 C
   C92        1.0     0.825346      0.709076      0.625923     Biso  1.000000 C
   C93        1.0     0.290920      0.674661      0.375942     Biso  1.000000 C
   C94        1.0     0.209086      0.825335      0.875945     Biso  1.000000 C
   C95        1.0     0.674658      0.209084      0.625946     Biso  1.000000 C
   C96        1.0     0.825334      0.290922      0.125949     Biso  1.000000 C
   C97        1.0     0.858465      0.882245      0.989264     Biso  1.000000 C
   C98        1.0     0.641548      0.617764      0.489256     Biso  1.000000 C
   C99        1.0     0.117725      0.358474      0.239290     Biso  1.000000 C
   C100       1.0     0.382243      0.141543      0.739262     Biso  1.000000 C
   C101       1.0     0.858460      0.117752      0.489264     Biso  1.000000 C
   C102       1.0     0.641537      0.382246      0.989265     Biso  1.000000 C
   C103       1.0     0.117728      0.641527      0.739290     Biso  1.000000 C
   C104       1.0     0.382244      0.858461      0.239262     Biso  1.000000 C
   C105       1.0     0.358462      0.382245      0.489266     Biso  1.000000 C
   C106       1.0     0.141538      0.117754      0.989264     Biso  1.000000 C
   C107       1.0     0.617757      0.858463      0.739258     Biso  1.000000 C
   C108       1.0     0.882243      0.641548      0.239262     Biso  1.000000 C
   C109       1.0     0.358466      0.617742      0.989280     Biso  1.000000 C
   C110       1.0     0.141539      0.882247      0.489266     Biso  1.000000 C
   C111       1.0     0.617755      0.141536      0.239262     Biso  1.000000 C
   C112       1.0     0.882244      0.358461      0.739262     Biso  1.000000 C
   C113       1.0     0.709925      0.143680      0.221145     Biso  1.000000 C
   C114       1.0     0.790072      0.356319      0.721140     Biso  1.000000 C
   C115       1.0     0.856317      0.209923      0.471163     Biso  1.000000 C
   C116       1.0     0.643682      0.290076      0.971152     Biso  1.000000 C
   C117       1.0     0.709927      0.856319      0.721145     Biso  1.000000 C
   C118       1.0     0.790070      0.643688      0.221159     Biso  1.000000 C
   C119       1.0     0.856318      0.790075      0.971152     Biso  1.000000 C
   C120       1.0     0.643688      0.709938      0.471154     Biso  1.000000 C
   C121       1.0     0.209899      0.643671      0.721126     Biso  1.000000 C
   C122       1.0     0.290071      0.856319      0.221154     Biso  1.000000 C
   C123       1.0     0.356323      0.709911      0.971143     Biso  1.000000 C
   C124       1.0     0.143683      0.790076      0.471145     Biso  1.000000 C
   C125       1.0     0.209896      0.356332      0.221131     Biso  1.000000 C
   C126       1.0     0.290070      0.143685      0.721157     Biso  1.000000 C
   C127       1.0     0.356317      0.290075      0.471153     Biso  1.000000 C
   C128       1.0     0.143681      0.209926      0.971147     Biso  1.000000 C
   C129       1.0     0.843863      0.803123      0.076043     Biso  1.000000 C
   C130       1.0     0.656137      0.696887      0.576041     Biso  1.000000 C
   C131       1.0     0.196864      0.343867      0.326023     Biso  1.000000 C
   C132       1.0     0.303120      0.156138      0.826048     Biso  1.000000 C
   C133       1.0     0.843861      0.196872      0.576052     Biso  1.000000 C
   C134       1.0     0.656134      0.303122      0.076042     Biso  1.000000 C
   C135       1.0     0.196867      0.656139      0.826018     Biso  1.000000 C
   C136       1.0     0.303121      0.843866      0.326049     Biso  1.000000 C
   C137       1.0     0.343864      0.303122      0.576045     Biso  1.000000 C
   C138       1.0     0.156135      0.196879      0.076039     Biso  1.000000 C
   C139       1.0     0.696880      0.843863      0.826034     Biso  1.000000 C
   C140       1.0     0.803120      0.656136      0.326051     Biso  1.000000 C
   C141       1.0     0.343862      0.696869      0.076037     Biso  1.000000 C
   C142       1.0     0.156138      0.803121      0.576037     Biso  1.000000 C
   C143       1.0     0.696878      0.156137      0.326035     Biso  1.000000 C
   C144       1.0     0.803117      0.343861      0.826031     Biso  1.000000 C
   C145       1.0     0.621241      0.975663      0.988230     Biso  1.000000 C
   C146       1.0     0.878738      0.524332      0.488274     Biso  1.000000 C
   C147       1.0     0.024324      0.121248      0.238270     Biso  1.000000 C
   C148       1.0     0.475675      0.378754      0.738273     Biso  1.000000 C
   C149       1.0     0.621232      0.024340      0.488227     Biso  1.000000 C
   C150       1.0     0.878754      0.475696      0.988241     Biso  1.000000 C
   C151       1.0     0.024332      0.878722      0.738259     Biso  1.000000 C
   C152       1.0     0.475694      0.621249      0.238241     Biso  1.000000 C
   C153       1.0     0.121266      0.475664      0.488266     Biso  1.000000 C
   C154       1.0     0.378778      0.024332      0.988254     Biso  1.000000 C
   C155       1.0     0.524328      0.621246      0.738258     Biso  1.000000 C
   C156       1.0     0.975669      0.878738      0.238280     Biso  1.000000 C
   C157       1.0     0.121261      0.524337      0.988264     Biso  1.000000 C
   C158       1.0     0.378771      0.975680      0.488278     Biso  1.000000 C
   C159       1.0     0.524324      0.378754      0.238272     Biso  1.000000 C
   C160       1.0     0.975669      0.121262      0.738277     Biso  1.000000 C
   C161       1.0     0.636813      0.935317      0.142254     Biso  1.000000 C
   C162       1.0     0.863188      0.564693      0.642286     Biso  1.000000 C
   C163       1.0     0.064684      0.136816      0.392280     Biso  1.000000 C
   C164       1.0     0.435317      0.363187      0.892283     Biso  1.000000 C
   C165       1.0     0.636812      0.064682      0.642250     Biso  1.000000 C
   C166       1.0     0.863176      0.435324      0.142234     Biso  1.000000 C
   C167       1.0     0.064690      0.863187      0.892282     Biso  1.000000 C
   C168       1.0     0.435324      0.636825      0.392235     Biso  1.000000 C
   C169       1.0     0.136813      0.435307      0.642290     Biso  1.000000 C
   C170       1.0     0.363189      0.064683      0.142266     Biso  1.000000 C
   C171       1.0     0.564685      0.636816      0.892271     Biso  1.000000 C
   C172       1.0     0.935307      0.863186      0.392293     Biso  1.000000 C
   C173       1.0     0.136813      0.564690      0.142284     Biso  1.000000 C
   C174       1.0     0.363189      0.935320      0.642284     Biso  1.000000 C
   C175       1.0     0.564684      0.363187      0.392284     Biso  1.000000 C
   C176       1.0     0.935307      0.136812      0.892289     Biso  1.000000 C
   C177       1.0     0.652011      0.991910      0.149637     Biso  1.000000 C
   C178       1.0     0.847971      0.508105      0.649694     Biso  1.000000 C
   C179       1.0     0.008090      0.152015      0.399688     Biso  1.000000 C
   C180       1.0     0.491910      0.347991      0.899692     Biso  1.000000 C
   C181       1.0     0.652003      0.008086      0.649635     Biso  1.000000 C
   C182       1.0     0.848011      0.491924      0.149676     Biso  1.000000 C
   C183       1.0     0.008106      0.847954      0.899676     Biso  1.000000 C
   C184       1.0     0.491921      0.651995      0.399672     Biso  1.000000 C
   C185       1.0     0.152033      0.491894      0.649686     Biso  1.000000 C
   C186       1.0     0.348012      0.008085      0.149668     Biso  1.000000 C
   C187       1.0     0.508091      0.652014      0.899673     Biso  1.000000 C
   C188       1.0     0.991897      0.847971      0.399701     Biso  1.000000 C
   C189       1.0     0.152028      0.508102      0.149682     Biso  1.000000 C
   C190       1.0     0.348012      0.991919      0.649697     Biso  1.000000 C
   C191       1.0     0.508090      0.347990      0.399692     Biso  1.000000 C
   C192       1.0     0.991895      0.152029      0.899696     Biso  1.000000 C
   H1         1.0     0.907801      0.017006      0.308833     Biso  1.000000 H
   H2         1.0     0.592202      0.482999      0.808828     Biso  1.000000 H
   H3         1.0     0.982991      0.407802      0.558833     Biso  1.000000 H
   H4         1.0     0.517008      0.092203      0.058831     Biso  1.000000 H
   H5         1.0     0.907808      0.982924      0.808816     Biso  1.000000 H
   H6         1.0     0.592203      0.517012      0.308834     Biso  1.000000 H
   H7         1.0     0.982990      0.592206      0.058838     Biso  1.000000 H
   H8         1.0     0.517008      0.907797      0.558836     Biso  1.000000 H
   H9         1.0     0.407797      0.517007      0.808834     Biso  1.000000 H
   H10        1.0     0.092191      0.982996      0.308826     Biso  1.000000 H
   H11        1.0     0.482991      0.907795      0.058831     Biso  1.000000 H
   H12        1.0     0.017072      0.592189      0.558804     Biso  1.000000 H
   H13        1.0     0.407801      0.482989      0.308834     Biso  1.000000 H
   H14        1.0     0.092196      0.017004      0.808829     Biso  1.000000 H
   H15        1.0     0.482992      0.092206      0.558834     Biso  1.000000 H
   H16        1.0     0.017004      0.407801      0.058831     Biso  1.000000 H
   H17        1.0     0.820464      0.108888      0.069336     Biso  1.000000 H
   H18        1.0     0.679537      0.391114      0.569335     Biso  1.000000 H
   H19        1.0     0.891110      0.320468      0.319341     Biso  1.000000 H
   H20        1.0     0.608886      0.179541      0.819332     Biso  1.000000 H
   H21        1.0     0.820443      0.891103      0.569290     Biso  1.000000 H
   H22        1.0     0.679541      0.608886      0.069332     Biso  1.000000 H
   H23        1.0     0.891117      0.679545      0.819330     Biso  1.000000 H
   H24        1.0     0.608879      0.820461      0.319328     Biso  1.000000 H
   H25        1.0     0.320462      0.608886      0.569332     Biso  1.000000 H
   H26        1.0     0.179528      0.891112      0.069337     Biso  1.000000 H
   H27        1.0     0.391114      0.820460      0.819335     Biso  1.000000 H
   H28        1.0     0.108893      0.679561      0.319282     Biso  1.000000 H
   H29        1.0     0.320461      0.391115      0.069338     Biso  1.000000 H
   H30        1.0     0.179532      0.108890      0.569338     Biso  1.000000 H
   H31        1.0     0.391111      0.179541      0.319334     Biso  1.000000 H
   H32        1.0     0.108879      0.320462      0.819328     Biso  1.000000 H
   H33        1.0     0.789940      0.994700      0.057623     Biso  1.000000 H
   H34        1.0     0.710064      0.505302      0.557617     Biso  1.000000 H
   H35        1.0     0.005298      0.289940      0.307627     Biso  1.000000 H
   H36        1.0     0.494694      0.210064      0.807619     Biso  1.000000 H
   H37        1.0     0.789932      0.005295      0.557650     Biso  1.000000 H
   H38        1.0     0.710059      0.494693      0.057619     Biso  1.000000 H
   H39        1.0     0.005309      0.710065      0.807625     Biso  1.000000 H
   H40        1.0     0.494686      0.789941      0.307623     Biso  1.000000 H
   H41        1.0     0.289939      0.494696      0.557621     Biso  1.000000 H
   H42        1.0     0.210060      0.005299      0.057626     Biso  1.000000 H
   H43        1.0     0.505305      0.789939      0.807618     Biso  1.000000 H
   H44        1.0     0.994701      0.710073      0.307648     Biso  1.000000 H
   H45        1.0     0.289939      0.505307      0.057627     Biso  1.000000 H
   H46        1.0     0.210061      0.994701      0.557623     Biso  1.000000 H
   H47        1.0     0.505301      0.210063      0.307615     Biso  1.000000 H
   H48        1.0     0.994688      0.289940      0.807626     Biso  1.000000 H
   H49        1.0     0.738164      0.951344      0.344774     Biso  1.000000 H
   H50        1.0     0.761839      0.548661      0.844770     Biso  1.000000 H
   H51        1.0     0.048656      0.238159      0.594778     Biso  1.000000 H
   H52        1.0     0.451347      0.261838      0.094784     Biso  1.000000 H
   H53        1.0     0.738160      0.048651      0.844780     Biso  1.000000 H
   H54        1.0     0.761839      0.451346      0.344774     Biso  1.000000 H
   H55        1.0     0.048663      0.761833      0.094759     Biso  1.000000 H
   H56        1.0     0.451340      0.738163      0.594775     Biso  1.000000 H
   H57        1.0     0.238159      0.451340      0.844772     Biso  1.000000 H
   H58        1.0     0.261838      0.048652      0.344785     Biso  1.000000 H
   H59        1.0     0.548658      0.738165      0.094773     Biso  1.000000 H
   H60        1.0     0.951352      0.761834      0.594783     Biso  1.000000 H
   H61        1.0     0.238165      0.548656      0.344781     Biso  1.000000 H
   H62        1.0     0.261837      0.951340      0.844761     Biso  1.000000 H
   H63        1.0     0.548654      0.261846      0.594779     Biso  1.000000 H
   H64        1.0     0.951340      0.238165      0.094769     Biso  1.000000 H
   H65        1.0     0.730316      0.208848      0.997912     Biso  1.000000 H
   H66        1.0     0.769692      0.291148      0.497912     Biso  1.000000 H
   H67        1.0     0.791143      0.230311      0.247913     Biso  1.000000 H
   H68        1.0     0.708853      0.269693      0.747911     Biso  1.000000 H
   H69        1.0     0.730312      0.791149      0.497926     Biso  1.000000 H
   H70        1.0     0.769689      0.708857      0.997912     Biso  1.000000 H
   H71        1.0     0.791153      0.769680      0.747908     Biso  1.000000 H
   H72        1.0     0.708851      0.730314      0.247929     Biso  1.000000 H
   H73        1.0     0.230310      0.708854      0.497908     Biso  1.000000 H
   H74        1.0     0.269689      0.791150      0.997932     Biso  1.000000 H
   H75        1.0     0.291142      0.730307      0.747913     Biso  1.000000 H
   H76        1.0     0.208851      0.769691      0.247936     Biso  1.000000 H
   H77        1.0     0.230306      0.291142      0.997913     Biso  1.000000 H
   H78        1.0     0.269686      0.208850      0.497918     Biso  1.000000 H
   H79        1.0     0.291147      0.269693      0.247915     Biso  1.000000 H
   H80        1.0     0.208853      0.230308      0.747915     Biso  1.000000 H
   H81        1.0     0.822213      0.792430      0.358951     Biso  1.000000 H
   H82        1.0     0.677785      0.707573      0.858947     Biso  1.000000 H
   H83        1.0     0.207562      0.322215      0.608949     Biso  1.000000 H
   H84        1.0     0.292436      0.177789      0.108943     Biso  1.000000 H
   H85        1.0     0.822216      0.207559      0.858942     Biso  1.000000 H
   H86        1.0     0.677785      0.292438      0.358947     Biso  1.000000 H
   H87        1.0     0.207583      0.677796      0.108948     Biso  1.000000 H
   H88        1.0     0.292428      0.822216      0.608955     Biso  1.000000 H
   H89        1.0     0.322214      0.292429      0.858954     Biso  1.000000 H
   H90        1.0     0.177786      0.207565      0.358941     Biso  1.000000 H
   H91        1.0     0.707569      0.822213      0.108947     Biso  1.000000 H
   H92        1.0     0.792437      0.677786      0.608924     Biso  1.000000 H
   H93        1.0     0.322215      0.707567      0.358940     Biso  1.000000 H
   H94        1.0     0.177796      0.792426      0.858936     Biso  1.000000 H
   H95        1.0     0.707563      0.177787      0.608945     Biso  1.000000 H
   H96        1.0     0.792427      0.322217      0.108951     Biso  1.000000 H
   H97        1.0     0.863451      0.927390      0.971859     Biso  1.000000 H
   H98        1.0     0.636573      0.572619      0.471847     Biso  1.000000 H
   H99        1.0     0.072581      0.363468      0.221900     Biso  1.000000 H
   H100       1.0     0.427385      0.136561      0.721851     Biso  1.000000 H
   H101       1.0     0.863442      0.072609      0.471851     Biso  1.000000 H
   H102       1.0     0.636551      0.427391      0.971860     Biso  1.000000 H
   H103       1.0     0.072585      0.636534      0.721898     Biso  1.000000 H
   H104       1.0     0.427387      0.863443      0.221852     Biso  1.000000 H
   H105       1.0     0.363448      0.427390      0.471860     Biso  1.000000 H
   H106       1.0     0.136552      0.072612      0.971860     Biso  1.000000 H
   H107       1.0     0.572612      0.863447      0.721853     Biso  1.000000 H
   H108       1.0     0.927385      0.636573      0.221843     Biso  1.000000 H
   H109       1.0     0.363459      0.572594      0.971883     Biso  1.000000 H
   H110       1.0     0.136555      0.927392      0.471857     Biso  1.000000 H
   H111       1.0     0.572610      0.136551      0.221856     Biso  1.000000 H
   H112       1.0     0.927387      0.363446      0.721861     Biso  1.000000 H
   H113       1.0     0.750910      0.139760      0.181846     Biso  1.000000 H
   H114       1.0     0.749089      0.360240      0.681836     Biso  1.000000 H
   H115       1.0     0.860236      0.250910      0.431869     Biso  1.000000 H
   H116       1.0     0.639764      0.249092      0.931850     Biso  1.000000 H
   H117       1.0     0.750912      0.860239      0.681847     Biso  1.000000 H
   H118       1.0     0.749084      0.639776      0.181860     Biso  1.000000 H
   H119       1.0     0.860237      0.749091      0.931852     Biso  1.000000 H
   H120       1.0     0.639773      0.750922      0.431847     Biso  1.000000 H
   H121       1.0     0.250878      0.639737      0.681808     Biso  1.000000 H
   H122       1.0     0.249086      0.860235      0.181860     Biso  1.000000 H
   H123       1.0     0.360249      0.750892      0.931839     Biso  1.000000 H
   H124       1.0     0.139763      0.749094      0.431843     Biso  1.000000 H
   H125       1.0     0.250875      0.360267      0.181813     Biso  1.000000 H
   H126       1.0     0.249085      0.139769      0.681862     Biso  1.000000 H
   H127       1.0     0.360236      0.249091      0.431853     Biso  1.000000 H
   H128       1.0     0.139761      0.250910      0.931845     Biso  1.000000 H
   H129       1.0     0.834471      0.775212      0.143149     Biso  1.000000 H
   H130       1.0     0.665523      0.724800      0.643148     Biso  1.000000 H
   H131       1.0     0.224783      0.334464      0.393116     Biso  1.000000 H
   H132       1.0     0.275211      0.165527      0.893158     Biso  1.000000 H
   H133       1.0     0.834468      0.224781      0.643160     Biso  1.000000 H
   H134       1.0     0.665525      0.275210      0.143151     Biso  1.000000 H
   H135       1.0     0.224786      0.665543      0.893106     Biso  1.000000 H
   H136       1.0     0.275212      0.834476      0.393157     Biso  1.000000 H
   H137       1.0     0.334473      0.275211      0.643153     Biso  1.000000 H
   H138       1.0     0.165526      0.224791      0.143144     Biso  1.000000 H
   H139       1.0     0.724792      0.834470      0.893142     Biso  1.000000 H
   H140       1.0     0.775207      0.665522      0.393158     Biso  1.000000 H
   H141       1.0     0.334469      0.724784      0.143137     Biso  1.000000 H
   H142       1.0     0.165532      0.775207      0.643140     Biso  1.000000 H
   H143       1.0     0.724789      0.165530      0.393141     Biso  1.000000 H
   H144       1.0     0.775203      0.334467      0.893134     Biso  1.000000 H
   H145       1.0     0.608786      0.982005      0.905248     Biso  1.000000 H
   H146       1.0     0.891195      0.517965      0.405300     Biso  1.000000 H
   H147       1.0     0.017962      0.108799      0.155295     Biso  1.000000 H
   H148       1.0     0.482036      0.391206      0.655295     Biso  1.000000 H
   H149       1.0     0.608774      0.018000      0.405248     Biso  1.000000 H
   H150       1.0     0.891209      0.482064      0.905267     Biso  1.000000 H
   H151       1.0     0.017971      0.891184      0.655286     Biso  1.000000 H
   H152       1.0     0.482061      0.608790      0.155269     Biso  1.000000 H
   H153       1.0     0.108809      0.482027      0.405293     Biso  1.000000 H
   H154       1.0     0.391230      0.017978      0.905278     Biso  1.000000 H
   H155       1.0     0.517971      0.608794      0.655283     Biso  1.000000 H
   H156       1.0     0.982035      0.891193      0.155306     Biso  1.000000 H
   H157       1.0     0.108804      0.517977      0.905291     Biso  1.000000 H
   H158       1.0     0.391226      0.982042      0.405303     Biso  1.000000 H
   H159       1.0     0.517962      0.391205      0.155296     Biso  1.000000 H
   H160       1.0     0.982037      0.108807      0.655303     Biso  1.000000 H
   H161       1.0     0.638325      0.901721      0.201894     Biso  1.000000 H
   H162       1.0     0.861685      0.598294      0.701916     Biso  1.000000 H
   H163       1.0     0.098284      0.138326      0.451910     Biso  1.000000 H
   H164       1.0     0.401715      0.361674      0.951913     Biso  1.000000 H
   H165       1.0     0.638330      0.098277      0.701889     Biso  1.000000 H
   H166       1.0     0.861654      0.401716      0.201851     Biso  1.000000 H
   H167       1.0     0.098290      0.861690      0.951916     Biso  1.000000 H
   H168       1.0     0.401716      0.638347      0.451854     Biso  1.000000 H
   H169       1.0     0.138313      0.401709      0.701925     Biso  1.000000 H
   H170       1.0     0.361665      0.098283      0.201897     Biso  1.000000 H
   H171       1.0     0.598284      0.638326      0.951903     Biso  1.000000 H
   H172       1.0     0.901706      0.861684      0.451924     Biso  1.000000 H
   H173       1.0     0.138316      0.598289      0.201920     Biso  1.000000 H
   H174       1.0     0.361663      0.901718      0.701911     Biso  1.000000 H
   H175       1.0     0.598285      0.361675      0.451912     Biso  1.000000 H
   H176       1.0     0.901706      0.138315      0.951920     Biso  1.000000 H
   H177       1.0     0.669272      0.016153      0.216217     Biso  1.000000 H
   H178       1.0     0.830714      0.483871      0.716290     Biso  1.000000 H
   H179       1.0     0.983860      0.169278      0.466283     Biso  1.000000 H
   H180       1.0     0.516142      0.330728      0.966288     Biso  1.000000 H
   H181       1.0     0.669264      0.983842      0.716213     Biso  1.000000 H
   H182       1.0     0.830757      0.516153      0.216281     Biso  1.000000 H
   H183       1.0     0.983870      0.830703      0.966275     Biso  1.000000 H
   H184       1.0     0.516152      0.669249      0.466277     Biso  1.000000 H
   H185       1.0     0.169292      0.516131      0.716276     Biso  1.000000 H
   H186       1.0     0.330748      0.983848      0.216256     Biso  1.000000 H
   H187       1.0     0.483857      0.669276      0.966265     Biso  1.000000 H
   H188       1.0     0.016131      0.830713      0.466297     Biso  1.000000 H
   H189       1.0     0.169285      0.483863      0.216275     Biso  1.000000 H
   H190       1.0     0.330750      0.016152      0.716292     Biso  1.000000 H
   H191       1.0     0.483859      0.330726      0.466287     Biso  1.000000 H
   H192       1.0     0.016129      0.169288      0.966291     Biso  1.000000 H
   N1         1.0     0.848290      0.987112      0.190846     Biso  1.000000 N
   N2         1.0     0.651716      0.512896      0.690836     Biso  1.000000 N
   N3         1.0     0.012885      0.348291      0.440846     Biso  1.000000 N
   N4         1.0     0.487108      0.151715      0.940839     Biso  1.000000 N
   N5         1.0     0.848296      0.012859      0.690852     Biso  1.000000 N
   N6         1.0     0.651710      0.487112      0.190843     Biso  1.000000 N
   N7         1.0     0.012894      0.651716      0.940845     Biso  1.000000 N
   N8         1.0     0.487102      0.848285      0.440844     Biso  1.000000 N
   N9         1.0     0.348289      0.487111      0.690845     Biso  1.000000 N
   N10        1.0     0.151707      0.012888      0.190845     Biso  1.000000 N
   N11        1.0     0.512891      0.848285      0.940839     Biso  1.000000 N
   N12        1.0     0.987138      0.651704      0.440846     Biso  1.000000 N
   N13        1.0     0.348291      0.512888      0.190848     Biso  1.000000 N
   N14        1.0     0.151710      0.987113      0.690843     Biso  1.000000 N
   N15        1.0     0.512887      0.151714      0.440841     Biso  1.000000 N
   N16        1.0     0.987102      0.348287      0.940844     Biso  1.000000 N
   N17        1.0     0.872048      0.079291      0.201530     Biso  1.000000 N
   N18        1.0     0.627950      0.420719      0.701520     Biso  1.000000 N
   N19        1.0     0.920703      0.372053      0.451534     Biso  1.000000 N
   N20        1.0     0.579290      0.127955      0.951525     Biso  1.000000 N
   N21        1.0     0.872049      0.920662      0.701483     Biso  1.000000 N
   N22        1.0     0.627957      0.579292      0.201526     Biso  1.000000 N
   N23        1.0     0.920717      0.627958      0.951519     Biso  1.000000 N
   N24        1.0     0.579281      0.872048      0.451515     Biso  1.000000 N
   N25        1.0     0.372046      0.579289      0.701525     Biso  1.000000 N
   N26        1.0     0.127946      0.920709      0.201528     Biso  1.000000 N
   N27        1.0     0.420709      0.872044      0.951526     Biso  1.000000 N
   N28        1.0     0.079328      0.627951      0.451475     Biso  1.000000 N
   N29        1.0     0.372048      0.420705      0.201531     Biso  1.000000 N
   N30        1.0     0.127948      0.079295      0.701533     Biso  1.000000 N
   N31        1.0     0.420709      0.127957      0.451527     Biso  1.000000 N
   N32        1.0     0.079280      0.372052      0.951515     Biso  1.000000 N
   N33        1.0     0.792501      0.878170      0.326939     Biso  1.000000 N
   N34        1.0     0.707499      0.621833      0.826938     Biso  1.000000 N
   N35        1.0     0.121822      0.292502      0.576941     Biso  1.000000 N
   N36        1.0     0.378173      0.207501      0.076940     Biso  1.000000 N
   N37        1.0     0.792502      0.121819      0.826932     Biso  1.000000 N
   N38        1.0     0.707497      0.378178      0.326938     Biso  1.000000 N
   N39        1.0     0.121848      0.707505      0.076933     Biso  1.000000 N
   N40        1.0     0.378167      0.792501      0.576943     Biso  1.000000 N
   N41        1.0     0.292500      0.378169      0.826942     Biso  1.000000 N
   N42        1.0     0.207498      0.121823      0.326937     Biso  1.000000 N
   N43        1.0     0.621831      0.792500      0.076936     Biso  1.000000 N
   N44        1.0     0.878180      0.707489      0.576908     Biso  1.000000 N
   N45        1.0     0.292506      0.621824      0.326936     Biso  1.000000 N
   N46        1.0     0.207501      0.878167      0.826932     Biso  1.000000 N
   N47        1.0     0.621822      0.207502      0.576940     Biso  1.000000 N
   N48        1.0     0.878168      0.292504      0.076939     Biso  1.000000 N
   N49        1.0     0.718290      0.123012      0.938661     Biso  1.000000 N
   N50        1.0     0.781723      0.376978      0.438639     Biso  1.000000 N
   N51        1.0     0.876975      0.218280      0.188642     Biso  1.000000 N
   N52        1.0     0.623023      0.281727      0.688641     Biso  1.000000 N
   N53        1.0     0.718277      0.876977      0.438641     Biso  1.000000 N
   N54        1.0     0.781720      0.623025      0.938646     Biso  1.000000 N
   N55        1.0     0.876990      0.781699      0.688658     Biso  1.000000 N
   N56        1.0     0.623016      0.718290      0.188665     Biso  1.000000 N
   N57        1.0     0.218293      0.623015      0.438664     Biso  1.000000 N
   N58        1.0     0.281711      0.876986      0.938663     Biso  1.000000 N
   N59        1.0     0.376973      0.718275      0.688641     Biso  1.000000 N
   N60        1.0     0.123018      0.781714      0.188660     Biso  1.000000 N
   N61        1.0     0.218274      0.376974      0.938641     Biso  1.000000 N
   N62        1.0     0.281711      0.123012      0.438667     Biso  1.000000 N
   N63        1.0     0.376986      0.281713      0.188664     Biso  1.000000 N
   N64        1.0     0.123024      0.218275      0.688642     Biso  1.000000 N
   N65        1.0     0.659537      0.134678      0.166537     Biso  1.000000 N
   N66        1.0     0.840462      0.365319      0.666536     Biso  1.000000 N
   N67        1.0     0.865316      0.159538      0.416545     Biso  1.000000 N
   N68        1.0     0.634683      0.340465      0.916540     Biso  1.000000 N
   N69        1.0     0.659543      0.865321      0.666534     Biso  1.000000 N
   N70        1.0     0.840453      0.634692      0.166542     Biso  1.000000 N
   N71        1.0     0.865320      0.840463      0.916540     Biso  1.000000 N
   N72        1.0     0.634691      0.659557      0.416538     Biso  1.000000 N
   N73        1.0     0.159504      0.634668      0.666550     Biso  1.000000 N
   N74        1.0     0.340455      0.865317      0.166541     Biso  1.000000 N
   N75        1.0     0.365324      0.659524      0.916543     Biso  1.000000 N
   N76        1.0     0.134682      0.840465      0.416539     Biso  1.000000 N
   N77        1.0     0.159495      0.365332      0.166558     Biso  1.000000 N
   N78        1.0     0.340454      0.134687      0.666543     Biso  1.000000 N
   N79        1.0     0.365316      0.340463      0.416542     Biso  1.000000 N
   N80        1.0     0.134682      0.159538      0.916539     Biso  1.000000 N
   N81        1.0     0.845287      0.861766      0.086781     Biso  1.000000 N
   N82        1.0     0.654718      0.638243      0.586779     Biso  1.000000 N
   N83        1.0     0.138224      0.345287      0.336791     Biso  1.000000 N
   N84        1.0     0.361764      0.154717      0.836782     Biso  1.000000 N
   N85        1.0     0.845285      0.138228      0.586786     Biso  1.000000 N
   N86        1.0     0.654712      0.361765      0.086783     Biso  1.000000 N
   N87        1.0     0.138227      0.654715      0.836788     Biso  1.000000 N
   N88        1.0     0.361765      0.845287      0.336783     Biso  1.000000 N
   N89        1.0     0.345287      0.361765      0.586784     Biso  1.000000 N
   N90        1.0     0.154713      0.138236      0.086782     Biso  1.000000 N
   N91        1.0     0.638236      0.845285      0.836776     Biso  1.000000 N
   N92        1.0     0.861765      0.654716      0.336785     Biso  1.000000 N
   N93        1.0     0.345284      0.638228      0.086788     Biso  1.000000 N
   N94        1.0     0.154716      0.861764      0.586783     Biso  1.000000 N
   N95        1.0     0.638235      0.154715      0.336777     Biso  1.000000 N
   N96        1.0     0.861761      0.345283      0.836778     Biso  1.000000 N
   N97        1.0     0.641930      0.017268      0.051569     Biso  1.000000 N
   N98        1.0     0.858034      0.482743      0.551627     Biso  1.000000 N
   N99        1.0     0.982726      0.141935      0.301621     Biso  1.000000 N
   N100       1.0     0.517274      0.358069      0.801623     Biso  1.000000 N
   N101       1.0     0.641920      0.982732      0.551567     Biso  1.000000 N
   N102       1.0     0.858088      0.517292      0.051618     Biso  1.000000 N
   N103       1.0     0.982742      0.858004      0.801599     Biso  1.000000 N
   N104       1.0     0.517289      0.641917      0.301613     Biso  1.000000 N
   N105       1.0     0.141971      0.517254      0.551614     Biso  1.000000 N
   N106       1.0     0.358102      0.982726      0.051606     Biso  1.000000 N
   N107       1.0     0.482729      0.641933      0.801608     Biso  1.000000 N
   N108       1.0     0.017258      0.858034      0.301634     Biso  1.000000 N
   N109       1.0     0.141965      0.482744      0.051615     Biso  1.000000 N
   N110       1.0     0.358090      0.017280      0.551631     Biso  1.000000 N
   N111       1.0     0.482726      0.358068      0.301623     Biso  1.000000 N
   N112       1.0     0.017258      0.141966      0.801629     Biso  1.000000 N
   N113       1.0     0.617408      0.925305      0.039522     Biso  1.000000 N
   N114       1.0     0.882592      0.574693      0.539543     Biso  1.000000 N
   N115       1.0     0.074689      0.117412      0.289539     Biso  1.000000 N
   N116       1.0     0.425310      0.382588      0.789542     Biso  1.000000 N
   N117       1.0     0.617406      0.074698      0.539519     Biso  1.000000 N
   N118       1.0     0.882562      0.425323      0.039481     Biso  1.000000 N
   N119       1.0     0.074690      0.882591      0.789541     Biso  1.000000 N
   N120       1.0     0.425323      0.617436      0.289485     Biso  1.000000 N
   N121       1.0     0.117409      0.425306      0.539548     Biso  1.000000 N
   N122       1.0     0.382592      0.074695      0.039529     Biso  1.000000 N
   N123       1.0     0.574691      0.617412      0.789533     Biso  1.000000 N
   N124       1.0     0.925306      0.882589      0.289549     Biso  1.000000 N
   N125       1.0     0.117409      0.574695      0.039544     Biso  1.000000 N
   N126       1.0     0.382589      0.925312      0.539542     Biso  1.000000 N
   N127       1.0     0.574689      0.382589      0.289541     Biso  1.000000 N
   N128       1.0     0.925307      0.117409      0.789546     Biso  1.000000 N
   Zn1        1.0     0.850566      0.904485      0.223649     Biso  1.000000 Zn
   Zn2        1.0     0.649436      0.595519      0.723642     Biso  1.000000 Zn
   Zn3        1.0     0.095511      0.350565      0.473657     Biso  1.000000 Zn
   Zn4        1.0     0.404485      0.149439      0.973645     Biso  1.000000 Zn
   Zn5        1.0     0.850569      0.095492      0.723651     Biso  1.000000 Zn
   Zn6        1.0     0.649431      0.404484      0.223650     Biso  1.000000 Zn
   Zn7        1.0     0.095517      0.649439      0.973657     Biso  1.000000 Zn
   Zn8        1.0     0.404480      0.850568      0.473652     Biso  1.000000 Zn
   Zn9        1.0     0.350567      0.404483      0.723651     Biso  1.000000 Zn
   Zn10       1.0     0.149432      0.095516      0.223650     Biso  1.000000 Zn
   Zn11       1.0     0.595515      0.850560      0.973639     Biso  1.000000 Zn
   Zn12       1.0     0.904505      0.649429      0.473639     Biso  1.000000 Zn
   Zn13       1.0     0.350572      0.595517      0.223652     Biso  1.000000 Zn
   Zn14       1.0     0.149435      0.904484      0.723644     Biso  1.000000 Zn
   Zn15       1.0     0.595514      0.149445      0.473641     Biso  1.000000 Zn
   Zn16       1.0     0.904475      0.350571      0.973643     Biso  1.000000 Zn
   Zn17       1.0     0.650361      0.100131      0.021349     Biso  1.000000 Zn
   Zn18       1.0     0.849634      0.399876      0.521364     Biso  1.000000 Zn
   Zn19       1.0     0.899864      0.150363      0.271363     Biso  1.000000 Zn
   Zn20       1.0     0.600136      0.349645      0.771361     Biso  1.000000 Zn
   Zn21       1.0     0.650354      0.899867      0.521342     Biso  1.000000 Zn
   Zn22       1.0     0.849641      0.600150      0.021362     Biso  1.000000 Zn
   Zn23       1.0     0.899879      0.849612      0.771364     Biso  1.000000 Zn
   Zn24       1.0     0.600146      0.650362      0.271362     Biso  1.000000 Zn
   Zn25       1.0     0.150378      0.600118      0.521361     Biso  1.000000 Zn
   Zn26       1.0     0.349640      0.899866      0.021358     Biso  1.000000 Zn
   Zn27       1.0     0.399865      0.650358      0.771360     Biso  1.000000 Zn
   Zn28       1.0     0.100125      0.849635      0.271365     Biso  1.000000 Zn
   Zn29       1.0     0.150354      0.399875      0.021354     Biso  1.000000 Zn
   Zn30       1.0     0.349641      0.100139      0.521366     Biso  1.000000 Zn
   Zn31       1.0     0.399865      0.349638      0.271364     Biso  1.000000 Zn
   Zn32       1.0     0.100125      0.150363      0.771366     Biso  1.000000 Zn
