data_geometry-optimization-200-steps
_audit_creation_date              2019-09-20
_audit_creation_method            'Materials Studio'
_symmetry_space_group_name_H-M    'P1'
_symmetry_Int_Tables_number       1
_symmetry_cell_setting            triclinic
loop_
_symmetry_equiv_pos_as_xyz
  x,y,z
_cell_length_a                    19.3830
_cell_length_b                    19.3830
_cell_length_c                    19.3830
_cell_angle_alpha                 90.0000
_cell_angle_beta                  90.0000
_cell_angle_gamma                 90.0000
loop_
_atom_site_label
_atom_site_type_symbol
_atom_site_fract_x
_atom_site_fract_y
_atom_site_fract_z
_atom_site_U_iso_or_equiv
_atom_site_adp_type
_atom_site_occupancy
O1     O     0.71826   0.05497   0.48562   0.00000  Uiso   1.00
O2     O     0.77355   0.03132   0.27714   0.00000  Uiso   1.00
O3     O     0.43052   0.86467   0.88928   0.00000  Uiso   1.00
O4     O     0.29135   0.53120   0.07573   0.00000  Uiso   1.00
O5     O     0.06990   0.25721   0.60037   0.00000  Uiso   1.00
O6     O     0.01058   0.17695   0.69893   0.00000  Uiso   1.00
O7     O     0.78824   0.23285   0.14613   0.00000  Uiso   1.00
O8     O     0.22903   0.76747   0.75330   0.00000  Uiso   1.00
O9     O     0.75649   0.92762   0.85025   0.00000  Uiso   1.00
O10    O     0.62172   0.09414   0.35430   0.00000  Uiso   1.00
O11    O     0.56618   0.06960   0.08564   0.00000  Uiso   1.00
O12    O     0.63149   0.95843   0.31234   0.00000  Uiso   1.00
O13    O     0.58041   0.31908   0.11114   0.00000  Uiso   1.00
O14    O     0.19521   0.95117   0.00612   0.00000  Uiso   1.00
O15    O     0.30203   0.17014   0.26392   0.00000  Uiso   1.00
O16    O     0.10034   0.07205   0.33035   0.00000  Uiso   1.00
O17    O     0.89987   0.74383   0.19140   0.00000  Uiso   1.00
O18    O     0.69862   0.93655   0.67681   0.00000  Uiso   1.00
O19    O     0.92672   0.99608   0.16738   0.00000  Uiso   1.00
O20    O     0.27768   0.21534   0.84719   0.00000  Uiso   1.00
O21    O     0.05613   0.90997   0.60769   0.00000  Uiso   1.00
O22    O     0.83890   0.10271   0.51717   0.00000  Uiso   1.00
O23    O     1.00021   0.53869   0.44671   0.00000  Uiso   1.00
O24    O     0.10800   0.12152   0.06591   0.00000  Uiso   1.00
O25    O     0.25343   0.45208   0.96225   0.00000  Uiso   1.00
O26    O     0.81946   0.66001   0.07600   0.00000  Uiso   1.00
O27    O     0.14275   0.51058   0.34425   0.00000  Uiso   1.00
O28    O     0.89933   0.97308   0.29934   0.00000  Uiso   1.00
O29    O     0.00712   0.36474   0.70789   0.00000  Uiso   1.00
O30    O     0.86472   0.61443   0.94810   0.00000  Uiso   1.00
O31    O     0.77746   0.78903   0.86439   0.00000  Uiso   1.00
O32    O     0.17346   0.29184   0.27381   0.00000  Uiso   1.00
O33    O     0.60762   0.98602   0.44184   0.00000  Uiso   1.00
O34    O     0.16291   0.98215   0.65629   0.00000  Uiso   1.00
O35    O     0.35372   0.41034   0.04844   0.00000  Uiso   1.00
O36    O     0.16329   0.97247   0.26401   0.00000  Uiso   1.00
O37    O     0.00697   0.49677   0.66740   0.00000  Uiso   1.00
O38    O     0.46187   0.94788   0.23267   0.00000  Uiso   1.00
O39    O     0.62468   0.99569   0.18023   0.00000  Uiso   1.00
O40    O     0.94451   0.28783   0.81244   0.00000  Uiso   1.00
O41    O     0.50660   0.24677   0.20545   0.00000  Uiso   1.00
O42    O     0.08333   0.34403   0.36800   0.00000  Uiso   1.00
O43    O     0.45754   0.99019   0.05920   0.00000  Uiso   1.00
O44    O     0.08698   0.94482   0.09674   0.00000  Uiso   1.00
O45    O     0.02471   0.75998   0.34766   0.00000  Uiso   1.00
O46    O     0.96892   0.38496   0.00699   0.00000  Uiso   1.00
O47    O     0.13550   0.46164   0.90178   0.00000  Uiso   1.00
O48    O     0.08027   0.20848   0.33321   0.00000  Uiso   1.00
O49    O     0.10064   0.74004   0.73596   0.00000  Uiso   1.00
O50    O     0.12214   0.96360   0.88854   0.00000  Uiso   1.00
O51    O     0.05612   0.51704   0.79879   0.00000  Uiso   1.00
O52    O     0.87542   0.15177   0.87881   0.00000  Uiso   1.00
O53    O     0.92076   0.25309   0.00357   0.00000  Uiso   1.00
O54    O     0.20121   0.59363   0.99947   0.00000  Uiso   1.00
O55    O     0.11796   0.82946   0.91674   0.00000  Uiso   1.00
O56    O     0.37152   0.20894   0.98274   0.00000  Uiso   1.00
O57    O     0.82626   0.84507   0.47571   0.00000  Uiso   1.00
O58    O     0.30924   0.31296   0.13896   0.00000  Uiso   1.00
O59    O     0.94363   0.82715   0.08897   0.00000  Uiso   1.00
O60    O     0.36093   0.92801   0.98286   0.00000  Uiso   1.00
O61    O     0.81230   0.46936   0.73953   0.00000  Uiso   1.00
O62    O     0.91512   0.83693   0.37392   0.00000  Uiso   1.00
O63    O     0.97717   0.11811   0.29562   0.00000  Uiso   1.00
O64    O     0.67689   0.07378   0.68761   0.00000  Uiso   1.00
O65    O     0.21821   0.90649   0.13168   0.00000  Uiso   1.00
O66    O     0.30603   0.81245   0.92961   0.00000  Uiso   1.00
O67    O     0.13591   0.86689   0.78803   0.00000  Uiso   1.00
O68    O     0.37489   0.51994   0.96606   0.00000  Uiso   1.00
O69    O     0.64508   0.75650   0.84733   0.00000  Uiso   1.00
O70    O     0.23675   0.10461   0.64508   0.00000  Uiso   1.00
O71    O     0.52354   0.79701   0.81935   0.00000  Uiso   1.00
O72    O     0.46507   0.11801   0.00685   0.00000  Uiso   1.00
O73    O     0.75007   0.52447   0.96541   0.00000  Uiso   1.00
O74    O     0.92066   0.24628   0.20074   0.00000  Uiso   1.00
O75    O     0.48254   0.23899   0.06597   0.00000  Uiso   1.00
O76    O     0.95857   0.99708   0.73281   0.00000  Uiso   1.00
O77    O     0.89892   0.73929   0.98610   0.00000  Uiso   1.00
O78    O     0.27379   0.04166   0.31000   0.00000  Uiso   1.00
O79    O     0.66516   0.00038   0.91674   0.00000  Uiso   1.00
O80    O     0.77773   0.97255   0.10507   0.00000  Uiso   1.00
O81    O     0.35370   0.44077   0.18089   0.00000  Uiso   1.00
O82    O     0.28785   0.91984   0.24755   0.00000  Uiso   1.00
O83    O     0.81597   0.20131   0.27773   0.00000  Uiso   1.00
O84    O     0.92765   0.55206   0.76683   0.00000  Uiso   1.00
O85    O     0.53920   0.70168   0.92308   0.00000  Uiso   1.00
O86    O     0.15638   0.62842   0.87500   0.00000  Uiso   1.00
O87    O     0.98621   0.09698   0.10413   0.00000  Uiso   1.00
O88    O     0.58352   0.85603   0.04173   0.00000  Uiso   1.00
O89    O     0.02783   0.13558   0.56875   0.00000  Uiso   1.00
O90    O     1.00038   0.51092   0.05169   0.00000  Uiso   1.00
O91    O     0.29496   0.92820   0.77448   0.00000  Uiso   1.00
O92    O     0.03455   0.62431   0.71452   0.00000  Uiso   1.00
O93    O     0.16685   0.20785   0.97550   0.00000  Uiso   1.00
O94    O     0.04566   0.38167   0.83658   0.00000  Uiso   1.00
O95    O     0.30814   0.81005   0.16755   0.00000  Uiso   1.00
O96    O     0.72892   0.27417   0.99292   0.00000  Uiso   1.00
O97    O     0.05927   0.13914   0.82624   0.00000  Uiso   1.00
O98    O     0.85425   0.09413   0.75219   0.00000  Uiso   1.00
O99    O     0.98245   0.77753   0.48265   0.00000  Uiso   1.00
O100   O     0.18436   0.90257   0.54155   0.00000  Uiso   1.00
O101   O     0.01521   0.88895   0.84343   0.00000  Uiso   1.00
O102   O     0.88153   0.48525   0.98654   0.00000  Uiso   1.00
O103   O     0.72588   0.67807   0.93005   0.00000  Uiso   1.00
O104   O     0.24307   0.13898   0.06663   0.00000  Uiso   1.00
O105   O     0.94791   0.86447   0.96201   0.00000  Uiso   1.00
O106   O     0.88274   0.87165   0.84067   0.00000  Uiso   1.00
O107   O     0.03248   0.76718   0.00629   0.00000  Uiso   1.00
O108   O     0.46872   0.04940   0.74617   0.00000  Uiso   1.00
O109   O     0.16003   0.84010   0.65744   0.00000  Uiso   1.00
O110   O     0.92104   0.42064   0.80257   0.00000  Uiso   1.00
O111   O     1.00023   0.48633   0.91680   0.00000  Uiso   1.00
O112   O     0.71866   0.92348   0.50691   0.00000  Uiso   1.00
O113   O     0.92275   0.39952   0.60414   0.00000  Uiso   1.00
O114   O     0.34997   0.05177   0.81441   0.00000  Uiso   1.00
O115   O     0.78819   0.85001   0.74301   0.00000  Uiso   1.00
O116   O     0.15951   0.28766   0.08623   0.00000  Uiso   1.00
O117   O     0.11524   0.09733   0.70478   0.00000  Uiso   1.00
O118   O     0.35109   0.10000   0.55983   0.00000  Uiso   1.00
O119   O     0.15564   0.71607   0.98278   0.00000  Uiso   1.00
O120   O     0.25661   0.99642   0.88912   0.00000  Uiso   1.00
O121   O     0.71569   0.85063   0.09030   0.00000  Uiso   1.00
O122   O     0.79864   0.77764   0.35000   0.00000  Uiso   1.00
O123   O     0.52080   0.07642   0.21616   0.00000  Uiso   1.00
O124   O     0.03000   0.88864   0.41633   0.00000  Uiso   1.00
O125   O     0.14586   0.45598   0.21871   0.00000  Uiso   1.00
O126   O     0.13186   0.71427   0.19465   0.00000  Uiso   1.00
O127   O     0.64575   0.73599   0.08006   0.00000  Uiso   1.00
O128   O     0.05280   0.27815   0.99026   0.00000  Uiso   1.00
O129   O     0.59351   0.86464   0.21881   0.00000  Uiso   1.00
O130   O     0.13886   0.44071   0.04494   0.00000  Uiso   1.00
O131   O     0.13213   0.22847   0.74960   0.00000  Uiso   1.00
O132   O     0.10139   0.04450   0.49578   0.00000  Uiso   1.00
O133   O     0.77008   0.19228   0.80188   0.00000  Uiso   1.00
O134   O     0.33043   0.04174   0.04439   0.00000  Uiso   1.00
O135   O     0.41293   0.80547   0.01475   0.00000  Uiso   1.00
O136   O     0.19879   0.60428   0.14002   0.00000  Uiso   1.00
O137   O     0.79793   0.91427   0.36136   0.00000  Uiso   1.00
O138   O     0.23265   0.93372   0.37953   0.00000  Uiso   1.00
O139   O     0.76655   0.16011   0.41345   0.00000  Uiso   1.00
O140   O     0.56550   0.99312   0.83030   0.00000  Uiso   1.00
O141   O     0.35420   0.93074   0.12333   0.00000  Uiso   1.00
O142   O     0.98597   0.70834   0.81210   0.00000  Uiso   1.00
O143   O     0.83337   0.03845   0.39993   0.00000  Uiso   1.00
O144   O     0.89889   0.05934   0.62834   0.00000  Uiso   1.00
O145   O     0.05201   0.19715   0.16625   0.00000  Uiso   1.00
O146   O     0.06513   0.61461   0.11800   0.00000  Uiso   1.00
O147   O     0.05598   0.40932   0.57707   0.00000  Uiso   1.00
O148   O     0.03840   0.30503   0.24282   0.00000  Uiso   1.00
O149   O     0.54272   0.02109   0.95748   0.00000  Uiso   1.00
O150   O     0.21898   0.04521   0.77037   0.00000  Uiso   1.00
O151   O     0.37606   0.15646   0.10728   0.00000  Uiso   1.00
O152   O     0.55498   0.66730   0.78858   0.00000  Uiso   1.00
O153   O     0.31963  -0.00030   0.64926   0.00000  Uiso   1.00
O154   O     0.96243   0.03510   0.50742   0.00000  Uiso   1.00
O155   O     0.17322   0.33976   0.95527   0.00000  Uiso   1.00
O156   O     0.29832   0.06917   0.17619   0.00000  Uiso   1.00
O157   O     0.47522   0.91313   0.76716   0.00000  Uiso   1.00
O158   O     0.17661   0.07682   0.95540   0.00000  Uiso   1.00
O159   O     0.57070   0.97879   0.69347   0.00000  Uiso   1.00
O160   O     0.39267   0.80596   0.76695   0.00000  Uiso   1.00
O161   O     0.09760   0.07223   0.19185   0.00000  Uiso   1.00
O162   O     0.14907   0.83010   0.04958   0.00000  Uiso   1.00
O163   O     0.95373   0.87210   0.21470   0.00000  Uiso   1.00
O164   O     0.29212   0.67344   0.06585   0.00000  Uiso   1.00
O165   O     0.86442   0.12453   0.17039   0.00000  Uiso   1.00
O166   O     0.74941   0.09328   0.04532   0.00000  Uiso   1.00
O167   O     0.02883   0.97270   0.26080   0.00000  Uiso   1.00
O168   O     0.99688   0.31221   0.11241   0.00000  Uiso   1.00
O169   O     0.40048   0.06912   0.27459   0.00000  Uiso   1.00
O170   O     0.42975   0.16333   0.81564   0.00000  Uiso   1.00
O171   O     0.97995   0.75419   0.67687   0.00000  Uiso   1.00
O172   O     0.64304   0.13513   0.18101   0.00000  Uiso   1.00
O173   O     0.72204   0.90973   0.21481   0.00000  Uiso   1.00
O174   O     0.06538   0.61116   0.97924   0.00000  Uiso   1.00
O175   O     0.83024   0.85764   0.15946   0.00000  Uiso   1.00
O176   O     0.85321   0.96504   0.53482   0.00000  Uiso   1.00
O177   O     0.68735   0.80929   0.96527   0.00000  Uiso   1.00
O178   O     0.36436   0.12484   0.69715   0.00000  Uiso   1.00
O179   O     0.62454   0.29159   0.86793   0.00000  Uiso   1.00
O180   O     0.83991   0.51722   0.86097   0.00000  Uiso   1.00
O181   O     0.79202   0.98347   0.96748   0.00000  Uiso   1.00
O182   O     0.01704   0.13033   0.42652   0.00000  Uiso   1.00
O183   O     0.82897   0.96932   0.69785   0.00000  Uiso   1.00
O184   O     0.76756   0.06605   0.85726   0.00000  Uiso   1.00
O185   O     0.50965   0.01724   0.34170   0.00000  Uiso   1.00
O186   O     0.60424   0.12155   0.87506   0.00000  Uiso   1.00
O187   O     0.79846   0.86829   0.60841   0.00000  Uiso   1.00
O188   O     0.87722   0.04837   0.05476   0.00000  Uiso   1.00
O189   O     0.02301   0.48244   0.27457   0.00000  Uiso   1.00
O190   O     0.95106   0.63566   0.05216   0.00000  Uiso   1.00
O191   O     0.10789   0.59029   0.24347   0.00000  Uiso   1.00
O192   O     0.44530   0.35078   0.13449   0.00000  Uiso   1.00
O193   O     0.92720   0.22557   0.61077   0.00000  Uiso   1.00
O194   O     0.62862   0.99684   0.57642   0.00000  Uiso   1.00
O195   O     0.94426   0.98681   0.90646   0.00000  Uiso   1.00
Na196  Na    0.89935   0.62838   0.15983   0.00000  Uiso   1.00
Na197  Na    0.55195   0.17025   0.28808   0.00000  Uiso   1.00
Na198  Na    0.70142   0.38897   0.95139   0.00000  Uiso   1.00
Na199  Na    0.29500   0.95151   0.54518   0.00000  Uiso   1.00
Na200  Na    0.19106   0.40615   0.33338   0.00000  Uiso   1.00
Na201  Na    0.88184   0.72222   0.85422   0.00000  Uiso   1.00
Na202  Na    0.03474   0.02778   0.64580   0.00000  Uiso   1.00
Na203  Na    0.90255   0.75676   0.59694   0.00000  Uiso   1.00
Na204  Na    0.93724   0.45496   0.49658   0.00000  Uiso   1.00
Na205  Na    0.33330   0.74648   0.25702   0.00000  Uiso   1.00
Na206  Na    0.53121   0.20833   0.84724   0.00000  Uiso   1.00
Na207  Na    0.07991   0.45822   0.42347   0.00000  Uiso   1.00
Na208  Na    0.28467   0.27100   0.02097   0.00000  Uiso   1.00
Na209  Na    0.51744   0.91658   0.13522   0.00000  Uiso   1.00
Na210  Na    0.49651   0.71885   0.70483   0.00000  Uiso   1.00
Na211  Na    0.39931   0.01736   0.39932   0.00000  Uiso   1.00
Na212  Na    0.39581   0.22578   0.22568   0.00000  Uiso   1.00
Na213  Na    1.00000   0.61459   0.87843   0.00000  Uiso   1.00
Na214  Na    0.65970   0.15253   0.77404   0.00000  Uiso   1.00
Na215  Na    0.25000   0.49673   0.19442   0.00000  Uiso   1.00
Na216  Na    0.71192   0.62506   0.03479   0.00000  Uiso   1.00
Na217  Na    0.00701   0.66321   0.44448   0.00000  Uiso   1.00
Na218  Na    0.12849   0.93414   0.43760   0.00000  Uiso   1.00
Na219  Na    0.69426   0.19088   0.07298   0.00000  Uiso   1.00
Na220  Na    0.97570   0.89596   0.52423   0.00000  Uiso   1.00
Na221  Na    0.22920   0.82291   0.46171   0.00000  Uiso   1.00
Na222  Na    0.77790   0.32992   0.08671   0.00000  Uiso   1.00
Na223  Na    0.18742   0.28841   0.83687   0.00000  Uiso   1.00
Na224  Na    0.59720   0.29169   0.99301   0.00000  Uiso   1.00
Na225  Na    0.98261   0.95820   0.05891   0.00000  Uiso   1.00
Na226  Na    0.57297   0.89911   0.92028   0.00000  Uiso   1.00
Na227  Na    0.49975   0.84729   0.28150   0.00000  Uiso   1.00
Na228  Na    0.09714   0.31940   0.49311   0.00000  Uiso   1.00
Na229  Na    0.37839   0.48605   0.44449   0.00000  Uiso   1.00
Na230  Na    0.57980   0.59373   0.15972   0.00000  Uiso   1.00
Na231  Na    0.13180   0.70825   0.31954   0.00000  Uiso   1.00
Na232  Na    0.18046   0.65616   0.76397   0.00000  Uiso   1.00
Na233  Na    0.28462   0.60070   0.56938   0.00000  Uiso   1.00
Na234  Na    0.81962   0.18432   0.02774   0.00000  Uiso   1.00
Na235  Na    0.97232   0.99638   0.38889   0.00000  Uiso   1.00
Na236  Na    0.98306   0.20861   0.89547   0.00000  Uiso   1.00
Na237  Na    0.21175   0.76376   0.12486   0.00000  Uiso   1.00
Na238  Na    0.51416   0.76367   0.02070   0.00000  Uiso   1.00
Na239  Na    0.06951   0.78804   0.56258   0.00000  Uiso   1.00
Na240  Na    0.01741   0.03126   0.82633   0.00000  Uiso   1.00
Na241  Na    0.74651   0.07284   0.17023   0.00000  Uiso   1.00
Na242  Na    0.88901   0.22565   0.72910   0.00000  Uiso   1.00
Na243  Na    0.65976   0.58683   0.90972   0.00000  Uiso   1.00
Na244  Na    0.20150   0.22898   0.17708   0.00000  Uiso   1.00
Na245  Na    0.71877   0.13187   0.29864   0.00000  Uiso   1.00
Na246  Na    0.77432   0.72572   0.16657   0.00000  Uiso   1.00
Na247  Na    0.72226   0.30560   0.80191   0.00000  Uiso   1.00
Na248  Na    0.68432   0.20137   0.90309   0.00000  Uiso   1.00
Na249  Na    0.97224   0.37167   0.30903   0.00000  Uiso   1.00
Na250  Na    0.19090   0.14575   0.84033   0.00000  Uiso   1.00
Na251  Na    0.97924   0.88183   0.71186   0.00000  Uiso   1.00
Na252  Na    0.06956   0.52793   0.53852   0.00000  Uiso   1.00
Na253  Na    0.85750   0.26414   0.89936   0.00000  Uiso   1.00
Na254  Na    0.31592   0.25334   0.73941   0.00000  Uiso   1.00
Na255  Na    0.93397   0.09005   0.94815   0.00000  Uiso   1.00
Na256  Na    0.19094   0.07633   0.42352   0.00000  Uiso   1.00
Na257  Na    0.33340   0.11113   0.91670   0.00000  Uiso   1.00
Na258  Na    0.47912   0.10766   0.55562   0.00000  Uiso   1.00
Na259  Na    0.15634   0.17694   0.58687   0.00000  Uiso   1.00
Na260  Na    0.28471   0.70124   0.91685   0.00000  Uiso   1.00
Na261  Na    0.36127   0.90274   0.68409   0.00000  Uiso   1.00
Na262  Na    0.23259   0.53795   0.86120   0.00000  Uiso   1.00
Na263  Na    0.46864   0.61103   0.92699   0.00000  Uiso   1.00
Na264  Na    0.67005   0.26390   0.19786   0.00000  Uiso   1.00
Na265  Na    0.38191   0.46187   0.76395   0.00000  Uiso   1.00
Na266  Na    0.19105   0.36447   0.17000   0.00000  Uiso   1.00
Na267  Na    0.06246   0.42718   0.13193   0.00000  Uiso   1.00
Na268  Na    0.89251   0.71572   0.30237   0.00000  Uiso   1.00
Na269  Na    0.39256   0.54522   0.14231   0.00000  Uiso   1.00
Na270  Na    0.72556   0.53485   0.72571   0.00000  Uiso   1.00
Na271  Na    0.75348   0.14232   0.62842   0.00000  Uiso   1.00
Na272  Na    0.05887   0.80215   0.22919   0.00000  Uiso   1.00
Na273  Na    0.88542   0.14251   0.35749   0.00000  Uiso   1.00
Si274  Si    0.77603   0.90702   0.68204   0.00000  Uiso   1.00
Si275  Si    0.37673   0.84889   0.95480   0.00000  Uiso   1.00
Si276  Si    0.88756   0.02907   0.70861   0.00000  Uiso   1.00
Si277  Si    0.50531   0.28821   0.13508   0.00000  Uiso   1.00
Si278  Si    0.50904   0.05051   0.02814   0.00000  Uiso   1.00
Si279  Si    0.09674   0.28793   0.30851   0.00000  Uiso   1.00
Si280  Si    0.98044   0.30356   0.02824   0.00000  Uiso   1.00
Si281  Si    0.36284   0.37472   0.12879   0.00000  Uiso   1.00
Si282  Si    0.09751   0.88634   0.85966   0.00000  Uiso   1.00
Si283  Si    0.13585   0.28299   0.00879   0.00000  Uiso   1.00
Si284  Si    0.94349   0.90791   0.88897   0.00000  Uiso   1.00
Si285  Si    0.81869   0.98890   0.32833   0.00000  Uiso   1.00
Si286  Si    0.82725   0.53544   0.94212   0.00000  Uiso   1.00
Si287  Si    0.91114   0.06979   0.13047   0.00000  Uiso   1.00
Si288  Si    0.99405   0.81370   0.40545   0.00000  Uiso   1.00
Si289  Si    0.95414   0.79748   0.01129   0.00000  Uiso   1.00
Si290  Si    0.42433   0.18457   0.04034   0.00000  Uiso   1.00
Si291  Si    0.97684   0.35898   0.78919   0.00000  Uiso   1.00
Si292  Si    0.15721   0.91355   0.07349   0.00000  Uiso   1.00
Si293  Si    0.70752   0.75286   0.90473   0.00000  Uiso   1.00
Si294  Si    0.75968   0.89826   0.14072   0.00000  Uiso   1.00
Si295  Si    0.87367   0.48882   0.78997   0.00000  Uiso   1.00
Si296  Si    0.15583   0.80373   0.73245   0.00000  Uiso   1.00
Si297  Si    1.00025   0.26216   0.18096   0.00000  Uiso   1.00
Si298  Si    0.78632   0.08989   0.45029   0.00000  Uiso   1.00
Si299  Si    0.31196   0.10149   0.10055   0.00000  Uiso   1.00
Si300  Si    0.00669   0.20487   0.61753   0.00000  Uiso   1.00
Si301  Si    0.59424   0.01656   0.36208   0.00000  Uiso   1.00
Si302  Si    0.88802   0.04139   0.54772   0.00000  Uiso   1.00
Si303  Si    0.96233   0.46559   0.98964   0.00000  Uiso   1.00
Si304  Si    0.47222   0.02222   0.26189   0.00000  Uiso   1.00
Si305  Si    0.65414   0.81277   0.04375   0.00000  Uiso   1.00
Si306  Si    0.06077   0.46022   0.86238   0.00000  Uiso   1.00
Si307  Si    0.32206   0.07984   0.63538   0.00000  Uiso   1.00
Si308  Si    0.79626   0.90094   0.52951   0.00000  Uiso   1.00
Si309  Si    0.99820   0.41521   0.63605   0.00000  Uiso   1.00
Si310  Si    0.66714   0.99051   0.50153   0.00000  Uiso   1.00
Si311  Si    0.10356   0.50684   0.26997   0.00000  Uiso   1.00
Si312  Si    0.17359   0.13499   0.01685   0.00000  Uiso   1.00
Si313  Si    0.79953   0.86038   0.82654   0.00000  Uiso   1.00
Si314  Si    0.24694   0.60481   0.06962   0.00000  Uiso   1.00
Si315  Si    0.74665   0.99606   0.89733   0.00000  Uiso   1.00
Si316  Si    0.18700   0.05377   0.69210   0.00000  Uiso   1.00
Si317  Si    0.11201   0.78710   0.98854   0.00000  Uiso   1.00
Si318  Si    0.09692   0.02291   0.26049   0.00000  Uiso   1.00
Si319  Si    0.59516   0.04296   0.89321   0.00000  Uiso   1.00
Si320  Si    0.45380   0.84194   0.81076   0.00000  Uiso   1.00
Si321  Si    0.83341   0.84164   0.38822   0.00000  Uiso   1.00
Si322  Si    0.87599   0.66214   0.01768   0.00000  Uiso   1.00
Si323  Si    0.40419   0.10115   0.76871   0.00000  Uiso   1.00
Si324  Si    0.84463   0.20570   0.20048   0.00000  Uiso   1.00
Si325  Si    0.28241   1.00137   0.80688   0.00000  Uiso   1.00
Si326  Si    0.51934   0.98465   0.76028   0.00000  Uiso   1.00
Si327  Si    0.31927   0.08973   0.25710   0.00000  Uiso   1.00
Si328  Si    0.13979   0.91169   0.61115   0.00000  Uiso   1.00
Si329  Si    0.37478   0.96970   0.05272   0.00000  Uiso   1.00
Si330  Si    0.64715   1.00306   0.66197   0.00000  Uiso   1.00
Si331  Si    0.23918   0.96230   0.30307   0.00000  Uiso   1.00
Si332  Si    0.00601   0.54750   0.73425   0.00000  Uiso   1.00
Si333  Si    0.01728   0.70999   0.73621   0.00000  Uiso   1.00
Si334  Si    0.12570   0.63434   0.17472   0.00000  Uiso   1.00
Si335  Si    0.64214   0.93051   0.23313   0.00000  Uiso   1.00
Si336  Si    0.81819   0.12728   0.82434   0.00000  Uiso   1.00
Si337  Si    0.18731   0.99382   0.93597   0.00000  Uiso   1.00
Si338  Si    0.03327   0.08835   0.49895   0.00000  Uiso   1.00
Si339  Si    0.17191   0.42558   0.97321   0.00000  Uiso   1.00
Si340  Si    0.29298   0.89182   0.16775   0.00000  Uiso   1.00
Si341  Si    0.06082   0.12029   0.13495   0.00000  Uiso   1.00
Si342  Si    0.02311   0.59316   0.05018   0.00000  Uiso   1.00
Si343  Si    0.79320   0.02516   0.04032   0.00000  Uiso   1.00
Si344  Si    0.90527   0.82048   0.16520   0.00000  Uiso   1.00
Si345  Si    0.56486   0.72518   0.84812   0.00000  Uiso   1.00
Si346  Si    0.07813   0.16474   0.74987   0.00000  Uiso   1.00
Si347  Si    0.31859   0.47918   0.01032   0.00000  Uiso   1.00
Si348  Si    0.04044   0.13544   0.34302   0.00000  Uiso   1.00
Si349  Si    0.59077   0.07300   0.16725   0.00000  Uiso   1.00
Si350  Si    0.95058   0.95389   0.23676   0.00000  Uiso   1.00
Si351  Si    0.14356   0.63627   0.95449   0.00000  Uiso   1.00
Se352  Se    0.22146   0.40239   0.72570   0.00000  Uiso   1.00
Se353  Se    0.33874   0.35905   0.36393   0.00000  Uiso   1.00
Se354  Se    0.20849   0.21496   0.45730   0.00000  Uiso   1.00
Se355  Se    0.34711   0.29369   0.59438   0.00000  Uiso   1.00
Se356  Se    0.44656   0.17392   0.41585   0.00000  Uiso   1.00
Se357  Se    0.61406   0.17340   0.56361   0.00000  Uiso   1.00
Se358  Se    0.17192   0.68414   0.46825   0.00000  Uiso   1.00
Se359  Se    0.33391   0.57316   0.31712   0.00000  Uiso   1.00
Se360  Se    0.21652   0.47929   0.50013   0.00000  Uiso   1.00
Se361  Se    0.40218   0.50113   0.62325   0.00000  Uiso   1.00
Se362  Se    0.53953   0.46832   0.26717   0.00000  Uiso   1.00
Se363  Se    0.51979   0.40425   0.48768   0.00000  Uiso   1.00
Se364  Se    0.53439   0.29553   0.69351   0.00000  Uiso   1.00
Se365  Se    0.43752   0.36854   0.86472   0.00000  Uiso   1.00
Se366  Se    0.65312   0.27799   0.34144   0.00000  Uiso   1.00
Se367  Se    0.76229   0.31728   0.63809   0.00000  Uiso   1.00
Se368  Se    0.46744   0.69747   0.18856   0.00000  Uiso   1.00
Se369  Se    0.37869   0.79993   0.38160   0.00000  Uiso   1.00
Se370  Se    0.39213   0.69931   0.59499   0.00000  Uiso   1.00
Se371  Se    0.55002   0.51525   0.04126   0.00000  Uiso   1.00
Se372  Se    0.52176   0.64005   0.44696   0.00000  Uiso   1.00
Se373  Se    0.61695   0.56017   0.61892   0.00000  Uiso   1.00
Se374  Se    0.34473   0.61381   0.80718   0.00000  Uiso   1.00
Se375  Se    0.72893   0.46158   0.14306   0.00000  Uiso   1.00
Se376  Se    0.69393   0.49183   0.39254   0.00000  Uiso   1.00
Se377  Se    0.84698   0.56199   0.57933   0.00000  Uiso   1.00
Se378  Se    0.59402   0.48824   0.83679   0.00000  Uiso   1.00
Se379  Se    0.89470   0.32363   0.42191   0.00000  Uiso   1.00
Se380  Se    0.44161   0.93225   0.53188   0.00000  Uiso   1.00
Se381  Se    0.61215   0.79245   0.65730   0.00000  Uiso   1.00
Se382  Se    0.66227   0.66191   0.25853   0.00000  Uiso   1.00
Se383  Se    0.73372   0.70415   0.49571   0.00000  Uiso   1.00
Se384  Se    0.84568   0.58488   0.29464   0.00000  Uiso   1.00
Cd385  Cd    0.26134   0.24502   0.33979   0.00000  Uiso   1.00
Cd386  Cd    0.43920   0.30370   0.44302   0.00000  Uiso   1.00
Cd387  Cd    0.12265   0.32336   0.67994   0.00000  Uiso   1.00
Cd388  Cd    0.37084   0.25728   0.87699   0.00000  Uiso   1.00
Cd389  Cd    0.63431   0.17827   0.43669   0.00000  Uiso   1.00
Cd390  Cd    0.33462   0.19420   0.49857   0.00000  Uiso   1.00
Cd391  Cd    0.21835   0.57908   0.39779   0.00000  Uiso   1.00
Cd392  Cd    0.40664   0.66753   0.38023   0.00000  Uiso   1.00
Cd393  Cd    0.26979   0.40576   0.59679   0.00000  Uiso   1.00
Cd394  Cd    0.46537   0.44155   0.97144   0.00000  Uiso   1.00
Cd395  Cd    0.41109   0.43037   0.27870   0.00000  Uiso   1.00
Cd396  Cd    0.59574   0.39437   0.37586   0.00000  Uiso   1.00
Cd397  Cd    0.45528   0.37359   0.61804   0.00000  Uiso   1.00
Cd398  Cd    0.56625   0.36234   0.80555   0.00000  Uiso   1.00
Cd399  Cd    0.78540   0.27426   0.36816   0.00000  Uiso   1.00
Cd400  Cd    0.63281   0.30033   0.60028   0.00000  Uiso   1.00
Cd401  Cd    0.41036   0.80166   0.51243   0.00000  Uiso   1.00
Cd402  Cd    0.33774   0.71105   0.71809   0.00000  Uiso   1.00
Cd403  Cd    0.28517   0.83383   0.82549   0.00000  Uiso   1.00
Cd404  Cd    0.37710   0.74330   0.09951   0.00000  Uiso   1.00
Cd405  Cd    0.58962   0.57530   0.34907   0.00000  Uiso   1.00
Cd406  Cd    0.50325   0.54557   0.54469   0.00000  Uiso   1.00
Cd407  Cd    0.55558   0.56682   0.73908   0.00000  Uiso   1.00
Cd408  Cd    0.59775   0.42878   0.13782   0.00000  Uiso   1.00
Cd409  Cd    0.74976   0.49395   0.26808   0.00000  Uiso   1.00
Cd410  Cd    0.76175   0.57154   0.48085   0.00000  Uiso   1.00
Cd411  Cd    0.81712   0.44229   0.62818   0.00000  Uiso   1.00
Cd412  Cd    0.87227   0.30012   0.55128   0.00000  Uiso   1.00
Cd413  Cd    0.59572   0.75676   0.18126   0.00000  Uiso   1.00
Cd414  Cd    0.54422   0.87932   0.59303   0.00000  Uiso   1.00
Cd415  Cd    0.70638   0.71981   0.36922   0.00000  Uiso   1.00
Cd416  Cd    0.62654   0.69096   0.57388   0.00000  Uiso   1.00
Cd417  Cd    0.95585   0.54023   0.34837   0.00000  Uiso   1.00
loop_
_geom_bond_atom_site_label_1
_geom_bond_atom_site_label_2
_geom_bond_distance
_geom_bond_site_symmetry_2
_ccdc_geom_bond_type
O1     Si298   1.633   .     S
O1     Si310   1.624   1_545 S
O2     Si285   1.558   1_545 S
O3     Si275   1.671   .     S
O3     Si320   1.648   .     S
O4     Si314   1.670   .     S
O4     Si347   1.704   .     S
O5     Si300   1.625   .     S
O5     Cd387   2.251   .     S
O6     Si300   1.670   .     S
O6     Si346   1.657   .     S
O7     Si324   1.607   .     S
O8     Si296   1.634   .     S
O8     Cd402   2.470   .     S
O8     Cd403   2.190   .     S
O9     Si313   1.614   .     S
O9     Si315   1.621   .     S
O10    Si301   1.602   .     S
O10    Cd389   2.295   .     S
O11    Si278   1.614   .     S
O11    Si349   1.653   .     S
O12    Si301   1.649   1_565 S
O12    Si335   1.641   .     S
O13    Si277   1.641   .     S
O13    Cd408   2.214   .     S
O14    Si292   1.667   .     S
O14    Si337   1.599   1_554 S
O15    Si327   1.599   .     S
O15    Cd385   2.212   .     S
O16    Si318   1.657   .     S
O16    Si348   1.708   .     S
O17    Si344   1.574   .     S
O18    Si274   1.609   .     S
O18    Si330   1.655   .     S
O19    Si287   1.626   1_565 S
O19    Si350   1.641   .     S
O20    Cd388   2.063   .     S
O21    Si328   1.623   .     S
O22    Si298   1.668   .     S
O22    Si302   1.634   .     S
O23    Cd417   2.091   .     S
O24    Si312   1.609   .     S
O24    Si341   1.621   .     S
O25    Si339   1.675   .     S
O25    Si347   1.655   1_556 S
O26    Si322   1.575   .     S
O27    Si311   1.630   .     S
O27    Cd391   2.233   .     S
O28    Si285   1.689   .     S
O28    Si350   1.611   .     S
O29    Si291   1.685   1_455 S
O29    Si309   1.711   1_455 S
O29    Cd387   2.439   .     S
O30    Si286   1.699   .     S
O30    Si322   1.650   1_556 S
O31    Si293   1.715   .     S
O31    Si313   1.623   .     S
O32    Si279   1.634   .     S
O32    Cd385   2.315   .     S
O33    Si301   1.676   1_565 S
O33    Si310   1.636   .     S
O34    Si316   1.621   1_565 S
O34    Si328   1.683   .     S
O35    Si281   1.713   .     S
O35    Si347   1.670   .     S
O36    Si318   1.617   1_565 S
O36    Si331   1.666   .     S
O37    Si309   1.702   1_455 S
O37    Si332   1.627   .     S
O38    Si304   1.561   1_565 S
O39    Si335   1.662   .     S
O39    Si349   1.656   1_565 S
O40    Si291   1.580   .     S
O41    Si277   1.583   .     S
O42    Si279   1.606   .     S
O43    Si278   1.651   1_565 S
O43    Si329   1.657   .     S
O44    Si292   1.557   .     S
O45    Si288   1.641   1_455 S
O46    Si280   1.646   .     S
O46    Si303   1.604   1_554 S
O47    Si306   1.638   .     S
O47    Si339   1.704   .     S
O48    Si279   1.644   .     S
O48    Si348   1.624   .     S
O49    Si296   1.635   .     S
O49    Si333   1.717   .     S
O50    Si282   1.668   .     S
O50    Si337   1.668   .     S
O51    Si306   1.655   .     S
O51    Si332   1.690   .     S
O52    Si336   1.603   .     S
O53    Si280   1.589   .     S
O54    Si314   1.637   1_556 S
O54    Si351   1.641   .     S
O55    Si282   1.611   .     S
O55    Si317   1.620   .     S
O56    Si290   1.587   1_556 S
O56    Cd388   2.254   .     S
O57    Si308   1.612   .     S
O57    Si321   1.703   .     S
O58    Si281   1.597   .     S
O59    Si289   1.624   .     S
O59    Si344   1.659   .     S
O60    Si275   1.656   .     S
O60    Si329   1.600   1_556 S
O61    Si295   1.585   .     S
O61    Cd411   2.223   .     S
O62    Si288   1.708   .     S
O62    Si321   1.610   .     S
O63    Si348   1.569   1_655 S
O64    Si330   1.568   1_545 S
O65    Si292   1.640   .     S
O65    Si340   1.634   .     S
O66    Si275   1.617   .     S
O66    Cd403   2.100   .     S
O67    Si282   1.620   .     S
O67    Si296   1.676   .     S
O68    Si347   1.597   1_556 S
O68    Cd394   2.323   .     S
O69    Si293   1.645   .     S
O69    Si345   1.669   .     S
O70    Si307   1.732   .     S
O70    Si316   1.653   .     S
O71    Si320   1.617   .     S
O71    Si345   1.700   .     S
O72    Si278   1.615   .     S
O72    Si290   1.646   .     S
O73    Si286   1.577   .     S
O74    Si297   1.619   .     S
O74    Si324   1.671   .     S
O75    Si277   1.703   .     S
O75    Si290   1.622   .     S
O76    Si276   1.581   1_565 S
O77    Si289   1.630   1_556 S
O77    Si322   1.676   1_556 S
O78    Si327   1.642   .     S
O78    Si331   1.684   1_545 S
O79    Si315   1.626   1_545 S
O79    Si319   1.652   .     S
O80    Si294   1.635   .     S
O80    Si343   1.645   1_565 S
O81    Si281   1.640   .     S
O81    Cd395   2.207   .     S
O82    Si331   1.651   .     S
O82    Si340   1.642   .     S
O83    Si324   1.599   .     S
O83    Cd399   2.329   .     S
O84    Si295   1.673   .     S
O84    Si332   1.647   1_655 S
O85    Si345   1.602   .     S
O86    Si351   1.568   .     S
O87    Si287   1.630   .     S
O87    Si341   1.629   1_655 S
O88    Si305   1.606   .     S
O89    Si300   1.693   .     S
O89    Si338   1.637   .     S
O90    Si303   1.662   1_554 S
O90    Si342   1.654   1_655 S
O91    Si325   1.570   .     S
O91    Cd403   2.088   .     S
O92    Si332   1.634   .     S
O92    Si333   1.746   .     S
O93    Si283   1.702   1_556 S
O93    Si312   1.629   1_556 S
O94    Si291   1.678   1_455 S
O94    Si306   1.629   .     S
O95    Si340   1.612   .     S
O95    Cd404   2.280   .     S
O97    Si346   1.603   .     S
O98    Si276   1.649   .     S
O98    Si336   1.690   .     S
O99    Si288   1.668   .     S
O100   Si328   1.612   .     S
O101   Si282   1.627   .     S
O101   Si284   1.687   1_455 S
O102   Si286   1.672   .     S
O102   Si303   1.613   .     S
O103   Si293   1.571   .     S
O104   Si299   1.656   .     S
O104   Si312   1.659   .     S
O105   Si284   1.649   .     S
O105   Si289   1.616   1_556 S
O106   Si284   1.661   .     S
O106   Si313   1.650   .     S
O107   Si289   1.631   1_455 S
O107   Si317   1.626   1_554 S
O108   Si323   1.662   .     S
O108   Si326   1.616   1_545 S
O109   Si296   1.618   .     S
O109   Si328   1.698   .     S
O110   Si291   1.633   .     S
O110   Si295   1.628   .     S
O111   Si303   1.642   .     S
O111   Si306   1.657   1_655 S
O112   Si308   1.626   .     S
O112   Si310   1.642   .     S
O113   Si309   1.617   .     S
O113   Cd411   2.257   .     S
O113   Cd412   2.391   .     S
O114   Si323   1.675   .     S
O114   Si325   1.640   1_545 S
O115   Si274   1.635   .     S
O115   Si313   1.646   .     S
O116   Si283   1.572   .     S
O117   Si316   1.646   .     S
O117   Si346   1.729   .     S
O118   Si307   1.617   .     S
O118   Cd390   2.201   .     S
O119   Si317   1.620   .     S
O119   Si351   1.658   .     S
O120   Si325   1.673   .     S
O120   Si337   1.622   .     S
O121   Si294   1.592   .     S
O121   Si305   1.666   .     S
O122   Si321   1.594   .     S
O122   Cd415   2.143   .     S
O123   Si304   1.666   .     S
O123   Si349   1.656   .     S
O124   Si288   1.625   1_455 S
O125   Si311   1.622   .     S
O126   Si334   1.601   .     S
O127   Si305   1.654   .     S
O127   Cd413   2.225   .     S
O128   Si280   1.659   1_456 S
O128   Si283   1.652   1_556 S
O129   Si335   1.611   .     S
O129   Cd413   2.215   .     S
O130   Si339   1.559   1_554 S
O131   Si346   1.619   .     S
O131   Cd387   2.289   .     S
O132   Si338   1.571   .     S
O133   Si336   1.627   .     S
O134   Si299   1.629   .     S
O134   Si329   1.648   1_545 S
O135   Si275   1.597   1_554 S
O135   Cd404   2.153   .     S
O136   Si314   1.653   .     S
O136   Si334   1.673   .     S
O137   Si285   1.632   .     S
O137   Si321   1.651   .     S
O138   Si331   1.587   .     S
O139   Si298   1.584   .     S
O139   Cd399   2.408   .     S
O140   Si319   1.658   1_565 S
O140   Si326   1.634   .     S
O141   Si329   1.613   .     S
O141   Si340   1.649   .     S
O142   Si333   1.592   1_655 S
O143   Si285   1.711   1_545 S
O143   Si298   1.667   .     S
O144   Si276   1.677   .     S
O144   Si302   1.615   .     S
O145   Si297   1.636   1_455 S
O145   Si341   1.618   .     S
O146   Si334   1.653   .     S
O146   Si342   1.601   .     S
O147   Si309   1.604   1_455 S
O148   Si279   1.735   .     S
O148   Si297   1.636   1_455 S
O149   Si278   1.621   1_556 S
O149   Si319   1.663   .     S
O150   Si316   1.647   .     S
O150   Si325   1.654   1_545 S
O151   Si290   1.690   .     S
O151   Si299   1.642   .     S
O152   Si345   1.621   .     S
O152   Cd407   2.171   .     S
O153   Si307   1.577   .     S
O154   Si302   1.645   .     S
O154   Si338   1.726   1_655 S
O155   Si283   1.677   1_556 S
O155   Si339   1.700   .     S
O156   Si299   1.616   .     S
O156   Si327   1.668   .     S
O157   Si320   1.671   .     S
O157   Si326   1.634   .     S
O158   Si312   1.641   1_556 S
O158   Si337   1.665   1_545 S
O159   Si326   1.637   .     S
O159   Si330   1.670   .     S
O160   Si320   1.616   .     S
O160   Cd402   2.327   .     S
O160   Cd403   2.433   .     S
O161   Si318   1.638   .     S
O161   Si341   1.610   .     S
O162   Si292   1.690   .     S
O162   Si317   1.616   1_554 S
O163   Si344   1.675   .     S
O163   Si350   1.643   .     S
O164   Si314   1.594   .     S
O164   Cd404   2.230   .     S
O165   Si287   1.595   .     S
O165   Si324   1.721   .     S
O166   Si343   1.573   .     S
O167   Si318   1.640   1_565 S
O167   Si350   1.628   1_455 S
O168   Si280   1.671   .     S
O168   Si297   1.646   .     S
O169   Si304   1.679   .     S
O169   Si327   1.659   .     S
O170   Si323   1.589   .     S
O170   Cd388   2.456   .     S
O171   Si333   1.606   1_655 S
O172   Si349   1.596   .     S
O173   Si294   1.626   .     S
O173   Si335   1.639   .     S
O174   Si342   1.638   1_556 S
O174   Si351   1.662   .     S
O175   Si294   1.619   .     S
O175   Si344   1.627   .     S
O176   Si302   1.646   1_565 S
O176   Si308   1.665   .     S
O177   Si293   1.651   .     S
O177   Si305   1.653   1_556 S
O178   Si307   1.693   .     S
O178   Si323   1.653   .     S
O179   Cd398   2.149   .     S
O180   Si286   1.631   .     S
O180   Si295   1.620   .     S
O181   Si315   1.638   .     S
O181   Si343   1.627   1_566 S
O182   Si338   1.653   .     S
O182   Si348   1.684   .     S
O183   Si274   1.614   .     S
O183   Si276   1.635   1_565 S
O184   Si315   1.615   1_545 S
O184   Si336   1.667   .     S
O185   Si301   1.687   .     S
O185   Si304   1.711   .     S
O186   Si319   1.573   .     S
O187   Si274   1.670   .     S
O187   Si308   1.656   .     S
O188   Si287   1.661   .     S
O188   Si343   1.713   .     S
O189   Si311   1.634   .     S
O189   Cd417   2.235   1_455 S
O190   Si322   1.681   .     S
O190   Si342   1.622   1_655 S
O191   Si311   1.699   .     S
O191   Si334   1.620   .     S
O192   Si277   1.681   .     S
O192   Si281   1.668   .     S
O193   Si300   1.598   1_655 S
O193   Cd412   2.133   .     S
O194   Si310   1.637   .     S
O194   Si330   1.701   .     S
O195   Si284   1.567   .     S
Si275  O135    1.597   1_556 S
Si276  O76     1.581   1_545 S
Si276  O183    1.635   1_545 S
Si278  O43     1.651   1_545 S
Si278  O149    1.621   1_554 S
Si280  O128    1.659   1_654 S
Si283  O155    1.677   1_554 S
Si283  O93     1.702   1_554 S
Si283  O128    1.652   1_554 S
Si284  O101    1.687   1_655 S
Si285  O2      1.558   1_565 S
Si285  O143    1.711   1_565 S
Si287  O19     1.626   1_545 S
Si288  O45     1.641   1_655 S
Si288  O124    1.625   1_655 S
Si289  O107    1.631   1_655 S
Si289  O105    1.616   1_554 S
Si289  O77     1.630   1_554 S
Si290  O56     1.587   1_554 S
Si291  O29     1.685   1_655 S
Si291  O94     1.678   1_655 S
Si297  O148    1.636   1_655 S
Si297  O145    1.636   1_655 S
Si300  O193    1.598   1_455 S
Si301  O33     1.676   1_545 S
Si301  O12     1.649   1_545 S
Si302  O176    1.646   1_545 S
Si303  O90     1.662   1_556 S
Si303  O46     1.604   1_556 S
Si304  O38     1.561   1_545 S
Si305  O177    1.653   1_554 S
Si306  O111    1.657   1_455 S
Si309  O37     1.702   1_655 S
Si309  O147    1.604   1_655 S
Si309  O29     1.711   1_655 S
Si310  O1      1.624   1_565 S
Si312  O93     1.629   1_554 S
Si312  O158    1.641   1_554 S
Si314  O54     1.637   1_554 S
Si315  O79     1.626   1_565 S
Si315  O184    1.615   1_565 S
Si316  O34     1.621   1_545 S
Si317  O107    1.626   1_556 S
Si317  O162    1.616   1_556 S
Si318  O36     1.617   1_545 S
Si318  O167    1.640   1_545 S
Si319  O140    1.658   1_545 S
Si322  O77     1.676   1_554 S
Si322  O30     1.650   1_554 S
Si325  O150    1.654   1_565 S
Si325  O114    1.640   1_565 S
Si326  O108    1.616   1_565 S
Si329  O134    1.648   1_565 S
Si329  O60     1.600   1_554 S
Si330  O64     1.568   1_565 S
Si331  O78     1.684   1_565 S
Si332  O84     1.647   1_455 S
Si333  O142    1.592   1_455 S
Si333  O171    1.606   1_455 S
Si337  O158    1.665   1_565 S
Si337  O14     1.599   1_556 S
Si338  O154    1.726   1_455 S
Si339  O130    1.559   1_556 S
Si341  O87     1.629   1_455 S
Si342  O90     1.654   1_455 S
Si342  O190    1.622   1_455 S
Si342  O174    1.638   1_554 S
Si343  O80     1.645   1_545 S
Si343  O181    1.627   1_544 S
Si347  O68     1.597   1_554 S
Si347  O25     1.655   1_554 S
Si348  O63     1.569   1_455 S
Si349  O39     1.656   1_545 S
Si350  O167    1.628   1_655 S
Se352  Cd387   2.608   .     S
Se352  Cd393   2.669   .     S
Se353  Cd385   2.712   .     S
Se353  Cd386   2.700   .     S
Se353  Cd395   2.570   .     S
Se354  Cd385   2.565   .     S
Se354  Cd390   2.604   .     S
Se355  Cd390   2.688   .     S
Se355  Cd393   2.640   .     S
Se355  Cd397   2.647   .     S
Se356  Cd386   2.574   .     S
Se356  Cd390   2.726   .     S
Se357  Cd389   2.493   .     S
Se357  Cd400   2.587   .     S
Se358  Cd391   2.612   .     S
Se359  Cd391   2.734   .     S
Se359  Cd392   2.613   .     S
Se360  Cd391   2.771   .     S
Se360  Cd393   2.571   .     S
Se361  Cd397   2.680   .     S
Se361  Cd406   2.626   .     S
Se362  Cd395   2.605   .     S
Se362  Cd396   2.771   .     S
Se362  Cd405   2.786   .     S
Se362  Cd408   2.854   .     S
Se363  Cd386   2.643   .     S
Se363  Cd396   2.627   .     S
Se363  Cd397   2.881   .     S
Se364  Cd397   2.604   .     S
Se364  Cd398   2.603   .     S
Se364  Cd400   2.629   .     S
Se365  Cd388   2.526   .     S
Se365  Cd394   2.564   .     S
Se365  Cd398   2.749   .     S
Se366  Cd389   2.698   .     S
Se366  Cd396   2.602   .     S
Se366  Cd399   2.617   .     S
Se367  Cd400   2.635   .     S
Se367  Cd411   2.653   .     S
Se367  Cd412   2.736   .     S
Se368  Cd404   2.614   .     S
Se368  Cd413   2.743   .     S
Se369  Cd392   2.623   .     S
Se369  Cd401   2.609   .     S
Se370  Cd401   2.573   .     S
Se370  Cd402   2.618   .     S
Se371  Cd394   2.562   1_554 S
Se371  Cd408   2.677   .     S
Se372  Cd392   2.634   .     S
Se372  Cd405   2.628   .     S
Se372  Cd406   2.659   .     S
Se373  Cd406   2.647   .     S
Se373  Cd407   2.618   .     S
Se373  Cd416   2.688   .     S
Se374  Cd402   2.560   .     S
Se375  Cd408   2.623   .     S
Se375  Cd409   2.536   .     S
Se376  Cd396   2.701   .     S
Se376  Cd405   2.723   .     S
Se376  Cd409   2.644   .     S
Se376  Cd410   2.654   .     S
Se377  Cd410   2.531   .     S
Se377  Cd411   2.572   .     S
Se378  Cd398   2.571   .     S
Se378  Cd407   2.542   .     S
Se379  Cd399   2.547   .     S
Se379  Cd412   2.586   .     S
Se380  Cd401   2.630   .     S
Se380  Cd414   2.532   .     S
Se381  Cd414   2.474   .     S
Se381  Cd416   2.562   .     S
Se382  Cd405   2.807   .     S
Se382  Cd413   2.699   .     S
Se382  Cd415   2.568   .     S
Se383  Cd410   2.643   .     S
Se383  Cd415   2.527   .     S
Se383  Cd416   2.584   .     S
Se384  Cd409   2.613   .     S
Se384  Cd417   2.529   .     S
Cd394  Se371   2.562   1_556 S
Cd417  O189    2.235   1_655 S
