data_smallpore_P1P1
_audit_creation_method         'generated by CrystalMaker X for macOS'
_cell_length_a                  33.224227
_cell_length_b                  33.224227
_cell_length_c                  33.224227
_cell_angle_alpha               90.000000
_cell_angle_beta                90.000000
_cell_angle_gamma               90.000000

_symmetry_space_group_name_H-M     'P 1'

loop_
_symmetry_equiv_pos_as_xyz
'+x,+y,+z'

loop_
_atom_site_label
_atom_site_type_symbol
_atom_site_occupancy
_atom_site_fract_x
_atom_site_fract_y
_atom_site_fract_z
 C  C 1.0  0.951615906135  0.301894677687  0.125691179528
 C  C 1.0  0.112428642618  0.40920233107  0.711182765658
 C  C 1.0  0.465088052526  0.711115246236  0.154818180835
 C  C 1.0  0.390713884427  0.909661160288  0.712552403739
 C  C 1.0  0.2149450303  0.109275904139  0.910464146134
 C  C 1.0  0.2150809774  0.389504965564  0.410392404452
 C  C 1.0  0.66326837422  0.467597750847  0.207215236963
 C  C 1.0  0.659942833616  0.03505017445  0.707551169478
 C  C 1.0  0.913982499796  0.211674934093  0.890910088925
 C  C 1.0  0.210984348897  0.656430876994  0.532759140249
 C  C 1.0  0.712748608441  0.66152618682  0.963184188834
 C  C 1.0  0.410943082028  0.210386705192  0.606931182696
 C  C 1.0  0.892430026963  0.909055174461  0.786922170793
 C  C 1.0  0.968743834916  0.707396245147  0.336463875906
 C  C 1.0  0.612549704111  0.411115037329  0.786445007661
 C  C 1.0  0.533727955992  0.2086539699  0.341480441393
 C  C 1.0  0.160117123489  0.032480964679  0.789945367066
 C  C 1.0  0.159821003903  0.461416155488  0.287186186024
 C  C 1.0  0.716467715582  0.390714821987  0.086132963162
 C  C 1.0  0.714788442692  0.109543828491  0.585987259583
 C  C 1.0  0.84361763648  0.963515140939  0.209164450013
 C  C 1.0  0.845318200438  0.532385829567  0.707629281051
 C  C 1.0  0.289959374773  0.607137031052  0.908749167606
 C  C 1.0  0.286968833024  0.887383368337  0.412228619518
 C  C 1.0  0.790972357146  0.156668338038  0.963366273986
 C  C 1.0  0.089800905132  0.712740755947  0.607176909403
 C  C 1.0  0.590849866808  0.714362184714  0.887658227985
 C  C 1.0  0.287559543566  0.154658425148  0.535395185648
 C  C 1.0  0.787229993564  0.890341538553  0.087537638052
 C  C 1.0  0.790356143295  0.607355250145  0.586076579633
 C  C 1.0  0.346867260708  0.534829318141  0.786865933859
 C  C 1.0  0.339929747225  0.964173943183  0.290824579452
 C  C 1.0  0.138017277611  0.16571875277  0.138571399386
 C  C 1.0  0.141560597223  0.331820646893  0.638915490847
 C  C 1.0  0.48439107223  0.633052967187  0.226640624409
 C  C 1.0  0.481442146492  0.869345905866  0.730142927338
 C  C 1.0  0.868808022045  0.228463254823  0.980670919063
 C  C 1.0  0.165608188051  0.638725100332  0.634998858868
 C  C 1.0  0.632336431146  0.732464735942  0.978595979135
 C  C 1.0  0.334177573718  0.138170878554  0.637004413732
 C  C 1.0  0.141652199174  0.135448199498  0.833028699111
 C  C 1.0  0.23192052878  0.479068136042  0.365693981902
 C  C 1.0  0.733757111286  0.481851270029  0.127144118033
 C  C 1.0  0.640992494516  0.13633338793  0.662524309017
 C  C 1.0  0.982591784126  0.865364270313  0.771383465015
 C  C 1.0  0.981925931147  0.627251695185  0.264723483875
 C  C 1.0  0.640385841514  0.332676494866  0.858022485512
 C  C 1.0  0.637190311316  0.165829202867  0.358349601746
 C  C 1.0  0.837901727499  0.138505133921  0.861548699879
 C  C 1.0  0.132812724945  0.728359409503  0.515996302902
 C  C 1.0  0.667768366966  0.640757526538  0.862146235037
 C  C 1.0  0.365388635441  0.22709255391  0.517313200526
 C  C 1.0  0.169292783478  0.858792915812  0.134807196474
 C  C 1.0  0.87111763834  0.266568624626  0.480877812163
 C  C 1.0  0.337471787112  0.359863275069  0.133922515407
 C  C 1.0  0.632795678317  0.768355583056  0.479173406083
 C  C 1.0  0.233687909169  0.019106030842  0.867590585578
 C  C 1.0  0.141473479892  0.3605173062  0.334413653912
 C  C 1.0  0.643631122536  0.364672189454  0.164219741369
 C  C 1.0  0.733347308144  0.019472733854  0.629286831706
 C  C 1.0  0.134200624889  0.766384922525  0.018469347078
 C  C 1.0  0.834062317084  0.358123125524  0.364595467302
 C  C 1.0  0.372725392928  0.267923510455  0.017733981332
 C  C 1.0  0.664976057112  0.859499381865  0.361279379741
 C  C 1.0  0.965188774785  0.787118695218  0.843543629572
 C  C 1.0  0.891127436466  0.585960870183  0.28536708473
 C  C 1.0  0.538276458169  0.288681279963  0.839796626592
 C  C 1.0  0.60967371297  0.088080302895  0.28637790288
 C  C 1.0  0.091186519741  0.786698886104  0.108375976668
 C  C 1.0  0.790962746779  0.338339104483  0.466832742377
 C  C 1.0  0.294337234777  0.341241033179  0.031291974646
 C  C 1.0  0.588079577133  0.786818055518  0.389521983871
 C  C 1.0  0.110952426972  0.087494227809  0.210591721406
 C  C 1.0  0.03994961474  0.285942466505  0.656601415877
 C  C 1.0  0.394355690578  0.587660219005  0.211171849438
 C  C 1.0  0.467823935276  0.789281811632  0.658518496245
 C  C 1.0  0.212761364116  0.839803127088  0.032441378347
 C  C 1.0  0.912236405838  0.285530600459  0.390483230863
 C  C 1.0  0.41537232315  0.287291344571  0.107957159577
 C  C 1.0  0.710637935518  0.841580719465  0.463200049557
 C  C 1.0  0.86287930868  0.83276767835  0.859721101252
 C  C 1.0  0.8666139787  0.664461911072  0.357470832526
 C  C 1.0  0.523373366918  0.367365878289  0.766469357901
 C  C 1.0  0.518616078044  0.12979544963  0.269773668015
 C  C 1.0  0.861457531627  0.861798279797  0.163223207287
 C  C 1.0  0.771232546714  0.517515818688  0.630958332576
 C  C 1.0  0.273323414017  0.517590681163  0.863842351063
 C  C 1.0  0.359090622327  0.861404873881  0.333781629508
 C  C 1.0  0.021034180972  0.130659165389  0.229956897928
 C  C 1.0  0.022795343774  0.365365576815  0.72832552424
 C  C 1.0  0.364516948415  0.662817305289  0.137317670782
 C  C 1.0  0.364454478845  0.831329785912  0.640325722735
 C  C 1.0  0.771494737907  0.980658758109  0.131192524461
 C  C 1.0  0.862243816311  0.635395411346  0.663797859451
 C  C 1.0  0.362770403675  0.636902774103  0.831598173978
 C  C 1.0  0.26635107501  0.976948432834  0.369374360826
 C  C 1.0  0.007178521421  0.242189537021  0.145575888724
 C  C 1.0  0.122809280333  0.448167202984  0.731288018677
 C  C 1.0  0.492102149608  0.744743318002  0.141985747322
 C  C 1.0  0.380142116947  0.948508706157  0.732696044687
 C  C 1.0  0.235060536055  0.120730728391  0.949127570286
 C  C 1.0  0.235682554894  0.378953504351  0.449010907081
 C  C 1.0  0.650708538698  0.495832426944  0.239946404349
 C  C 1.0  0.646798334527  0.008101899066  0.741100036027
 C  C 1.0  0.952630328404  0.231920774339  0.879718042524
 C  C 1.0  0.244113277304  0.643736603902  0.505035778843
 C  C 1.0  0.746207877558  0.648274800097  0.990198822806
 C  C 1.0  0.449797336953  0.230698402599  0.617462913169
 C  C 1.0  0.88171863722  0.947725227473  0.766447204226
 C  C 1.0  0.996434713128  0.740508110183  0.349149635913
 C  C 1.0  0.623509096488  0.450002232914  0.766547065155
 C  C 1.0  0.505430514315  0.241366592794  0.353788802609
 C  C 1.0  0.147379148112  0.004334217985  0.757211404641
 C  C 1.0  0.146807234741  0.488384192637  0.253577139953
 C  C 1.0  0.736569432207  0.379124875396  0.047528095415
 C  C 1.0  0.734772785688  0.121118646659  0.547357950962
 C  C 1.0  0.85634995968  0.991174566452  0.242311404599
 C  C 1.0  0.858075683868  0.504684350619  0.740730703705
 C  C 1.0  0.269375705979  0.617516695592  0.947425721924
 C  C 1.0  0.267111893566  0.875716265115  0.450935296856
 C  C 1.0  0.757919963687  0.144407198428  0.99134918672
 C  C 1.0  0.051169925562  0.73289099347  0.618523624656
 C  C 1.0  0.552128506117  0.734163197242  0.876075626469
 C  C 1.0  0.254026733223  0.141490150011  0.508448480408
 C  C 1.0  0.766862736815  0.879730020351  0.048812889272
 C  C 1.0  0.770331731536  0.61919460713  0.547482637305
 C  C 1.0  0.35979791593  0.507593631871  0.753479484918
 C  C 1.0  0.35270948066  0.991911153439  0.257720533103
 C  C 1.0  0.177310600108  0.167834624157  0.116870686213
 C  C 1.0  0.180722009772  0.330315202219  0.616998114947
 C  C 1.0  0.517472830126  0.619732306377  0.253894841045
 C  C 1.0  0.513434678603  0.884630181163  0.757639099509
 C  C 1.0  0.88227505852  0.255805665612  0.013559557046
 C  C 1.0  0.167317348609  0.616948270779  0.67427160336
 C  C 1.0  0.617430786097  0.760241929992  0.010511186861
 C  C 1.0  0.332955447875  0.116555804244  0.676337214747
 C  C 1.0  0.119729354134  0.174573021963  0.830673852357
 C  C 1.0  0.259212793749  0.511705445925  0.379879976634
 C  C 1.0  0.761507565807  0.513832517599  0.112387047514
 C  C 1.0  0.618431714116  0.175134620335  0.664772123987
 C  C 1.0  0.015121725944  0.879329861827  0.743826554358
 C  C 1.0  0.013898172531  0.612229016148  0.237066345511
 C  C 1.0  0.679503992366  0.330481671284  0.880021990066
 C  C 1.0  0.676543715549  0.168083206335  0.379903667355
 C  C 1.0  0.836380465311  0.116578852304  0.822372966662
 C  C 1.0  0.119021173801  0.755720686077  0.483230476575
 C  C 1.0  0.670104045204  0.618425991327  0.823229053422
 C  C 1.0  0.37896833182  0.254469794542  0.484446676559
 C  C 1.0  0.171319138146  0.881036850843  0.173797229965
 C  C 1.0  0.88638003647  0.238719042555  0.512586804048
 C  C 1.0  0.334937183184  0.381717673495  0.173087957591
 C  C 1.0  0.618989402253  0.74105422301  0.511992466929
 C  C 1.0  0.261232647065  0.986782907369  0.881989666785
 C  C 1.0  0.119463417744  0.321372664056  0.332885633522
 C  C 1.0  0.62167309145  0.325551121434  0.166883056873
 C  C 1.0  0.760634949885  0.986880575243  0.614914719858
 C  C 1.0  0.1193844698  0.738698413197  0.986408499316
 C  C 1.0  0.831350580842  0.379997627864  0.325415964745
 C  C 1.0  0.38740284156  0.240083757015  0.985794672429
 C  C 1.0  0.666933335205  0.881329532149  0.322080607608
 C  C 1.0  0.992762893708  0.75379185491  0.856011479407
 C  C 1.0  0.878525579948  0.547325882059  0.265977489242
 C  C 1.0  0.511056819281  0.255266039709  0.8527353883
 C  C 1.0  0.621140633093  0.049693463233  0.265849682247
 C  C 1.0  0.052495486098  0.76660009685  0.119668653603
 C  C 1.0  0.757805614836  0.351261194366  0.494325063877
 C  C 1.0  0.261193360764  0.353509106435  1.003430669397
 C  C 1.0  0.549540560957  0.766495166445  0.378140137765
 C  C 1.0  0.122215891985  0.048712931693  0.230550050518
 C  C 1.0  0.01254981831  0.252638111717  0.643666940779
 C  C 1.0  0.383024057516  0.548932875427  0.231232043254
 C  C 1.0  0.495815984022  0.756382406828  0.645838995841
 C  C 1.0  0.245957077469  0.852869766958  0.005032645779
 C  C 1.0  0.950821791334  0.265319932756  0.379124931176
 C  C 1.0  0.453847302121  0.267407930133  0.120345670292
 C  C 1.0  0.744074248676  0.854250639362  0.490588564196
 C  C 1.0  0.823475201689  0.831543480459  0.881222734917
 C  C 1.0  0.827724688658  0.667311228383  0.379815535568
 C  C 1.0  0.491413954857  0.38219481798  0.73870232945
 C  C 1.0  0.486257381438  0.115285452808  0.242309425796
 C  C 1.0  0.883557768478  0.82272908978  0.165108061311
 C  C 1.0  0.743536135542  0.484960387522  0.617271206653
 C  C 1.0  0.246017739095  0.484876378752  0.877900269273
 C  C 1.0  0.381394387051  0.822535436926  0.330977083408
 C  C 1.0  0.988555384098  0.116208860884  0.257318814647
 C  C 1.0  0.990279437254  0.379708750542  0.755716039164
 C  C 1.0  0.325164577171  0.663949596672  0.115733000582
 C  C 1.0  0.325246285992  0.82875343341  0.618559192082
 C  C 1.0  0.744136360221  0.013416666122  0.117385806357
 C  C 1.0  0.883786739061  0.67477115634  0.66565089272
 C  C 1.0  0.384451944202  0.676164502379  0.829274876377
 C  C 1.0  0.238572280344  0.008826351027  0.384298130627
 C  C 1.0  1.003049367182  0.276967696035  0.16961739364
 C  C 1.0  0.117032447881  0.451633159444  0.773252822297
 C  C 1.0  0.495117465889  0.779942114444  0.165579999354
 C  C 1.0  0.387068848006  0.952174384466  0.774470368392
 C  C 1.0  0.277033548501  0.115182567081  0.952784144371
 C  C 1.0  0.277511901714  0.385653252911  0.452288266127
 C  C 1.0  0.674373612612  0.49978149254  0.275000191229
 C  C 1.0  0.670150974393  0.005151073506  0.776456079502
 C  C 1.0  0.95624454467  0.273899665814  0.885297688776
 C  C 1.0  0.279196021215  0.667438488376  0.501549542283
 C  C 1.0  0.781681428824  0.671414822985  0.993410504245
 C  C 1.0  0.45313876713  0.272662626598  0.611621565239
 C  C 1.0  0.887322100388  0.950867509952  0.724436944757
 C  C 1.0  1.000085345715  0.775641623426  0.325554303185
 C  C 1.0  0.617807075047  0.453549521888  0.724587412956
 C  C 1.0  0.50175945365  0.276374844689  0.330005401904
 C  C 1.0  0.170922754849  1.000538466309  0.722057369012
 C  C 1.0  0.170259431385  0.491329832078  0.218279813761
 C  C 1.0  0.778535695589  0.38475560801  0.043923803637
 C  C 1.0  0.776778105666  0.115877404766  0.543700718845
 C  C 1.0  0.832562279293  -0.005173516648  0.27731079211
 C  C 1.0  0.834482968848  0.501278263958  0.775889579342
 C  C 1.0  0.227459529944  0.61129201841  0.95065888309
 C  C 1.0  0.225125563744  0.881082586916  0.454675944217
 C  C 1.0  0.723070783321  0.168411150891  0.995158109414
 C  C 1.0  0.04749884585  0.77486916841  0.613045233322
 C  C 1.0  0.548334940206  0.776103121248  0.881721171091
 C  C 1.0  0.2187770497  0.164962698141  0.505249618612
 C  C 1.0  0.725042706939  0.886344562061  0.045182816645
 C  C 1.0  0.728211781306  0.614696119655  0.544061949252
 C  C 1.0  0.336317069273  0.504426122755  0.718227909967
 C  C 1.0  0.329218987744  0.995383505239  0.222484664969
 C  C 1.0  0.21249456575  0.173523522633  0.139948649858
 C  C 1.0  0.216207120889  0.325109966939  0.639727607029
 C  C 1.0  0.522760473726  0.638860750681  0.291474219822
 C  C 1.0  0.518155468594  0.867004114264  0.796013975325
 C  C 1.0  0.862711576051  0.293098631481  0.019262950545
 C  C 1.0  0.172460904126  0.639975547584  0.709570654907
 C  C 1.0  0.635682243463  0.79826729525  0.015652766967
 C  C 1.0  0.328363130459  0.139689382112  0.711639792178
 C  C 1.0  0.142565531175  0.209771310211  0.824143762987
 C  C 1.0  0.296995681065  0.517117230785  0.361224271509
 C  C 1.0  0.799873580449  0.518000463503  0.130133352779
 C  C 1.0  0.640764849915  0.210661117953  0.671227062356
 C  C 1.0  0.020295271015  0.860376749804  0.706142678268
 C  C 1.0  0.018749357709  0.630065762383  0.198809305049
 C  C 1.0  0.714793984902  0.324201469766  0.857247560507
 C  C 1.0  0.711648276604  0.173980537074  0.356747961713
 C  C 1.0  0.831443544299  0.139467052349  0.78695621895
 C  C 1.0  0.137610300131  0.793605533196  0.478308250517
 C  C 1.0  0.676165247006  0.64108099345  0.787832077551
 C  C 1.0  0.359510192191  0.291803643752  0.47864679508
 C  C 1.0  0.177509704538  0.858376661548  0.209165816756
 C  C 1.0  0.868259665074  0.200596851182  0.517385219467
 C  C 1.0  0.328016300451  0.358871635459  0.208211261661
 C  C 1.0  0.63775440006  0.703297421572  0.517237780126
 C  C 1.0  0.299210474088  0.981862607409  0.863584800317
 C  C 1.0  0.142219308455  0.28592225883  0.32754588037
 C  C 1.0  0.644484593257  0.290382777239  0.173659483377
 C  C 1.0  0.798556713627  0.981458344918  0.633296711352
 C  C 1.0  0.13781967345  0.700806122353  0.980994123284
 C  C 1.0  0.824481524655  0.35701680351  0.29037324219
 C  C 1.0  0.369324649215  0.201903020392  0.981195511323
 C  C 1.0  0.672346328299  0.858426897035  0.286731072891
 C  C 1.0  0.995750753003  0.718614520223  0.832374984394
 C  C 1.0  0.882803593366  0.543485560112  0.223884531065
 C  C 1.0  0.507853424466  0.219942983372  0.829358851944
 C  C 1.0  0.615691874881  0.046533581642  0.223816668942
 C  C 1.0  0.04929144248  0.724561897645  0.114364924607
 C  C 1.0  0.722482860319  0.327926897953  0.497773918797
 C  C 1.0  0.226077220077  0.329810609534  1.000241345924
 C  C 1.0  0.54641498228  0.724407740626  0.383141422686
 C  C 1.0  0.116235099629  0.045011619007  0.272458057038
 C  C 1.0  0.009593062445  0.217157864466  0.666833595226
 C  C 1.0  0.387905952062  0.545289735669  0.273296920383
 C  C 1.0  0.499742809067  0.721417266268  0.669643716959
 C  C 1.0  0.281140089085  0.829358532904  1.001423395087
 C  C 1.0  0.954047578  0.223309599109  0.384635138967
 C  C 1.0  0.457187535122  0.225217042811  0.11648412169
 C  C 1.0  0.779131170603  0.830481105739  0.49385985338
 C  C 1.0  0.788219768722  0.826600270561  0.858077537992
 C  C 1.0  0.792454311566  0.674563682583  0.357310182522
 C  C 1.0  0.486385364968  0.363914884166  0.700671493242
 C  C 1.0  0.481497419411  0.133461874367  0.204198563499
 C  C 1.0  0.860852398467  0.787276225234  0.170575665544
 C  C 1.0  0.705699467725  0.480122602305  0.636016270725
 C  C 1.0  0.208209325537  0.479446203847  0.859276312153
 C  C 1.0  0.358885152682  0.78714144488  0.324357373958
 C  C 1.0  0.983047974614  0.134965369478  0.295044599285
 C  C 1.0  0.985015544475  0.361179000827  0.793594719637
 C  C 1.0  0.289800725704  0.668666525357  0.138759610186
 C  C 1.0  0.290100967753  0.822666906629  0.641598396282
 C  C 1.0  0.706788943086  0.019239657892  0.136802627754
 C  C 1.0  0.860573648923  0.709880593508  0.671336462217
 C  C 1.0  0.361408814099  0.711316606917  0.823256925902
 C  C 1.0  0.200525586639  0.01380884183  0.366045186365
 C  C 1.0  0.975154808172  0.306858890485  0.160290282057
 C  C 1.0  0.123012343715  0.488058931537  0.793063862457
 C  C 1.0  0.52210335088  0.810564445172  0.155919953697
 C  C 1.0  0.381227148578  0.988585338159  0.794316322604
 C  C 1.0  0.296705815431  0.121851614154  0.989173881457
 C  C 1.0  0.297749178487  0.379272523239  0.488412690072
 C  C 1.0  0.664580377642  0.527317751781  0.305065078396
 C  C 1.0  0.65994381548  0.978650912386  0.807300479816
 C  C 1.0  0.992474539168  0.293709018424  0.878107932886
 C  C 1.0  0.309488761599  0.657871413313  0.474181612397
 C  C 1.0  0.812433361466  0.660801080245  0.019887511406
 C  C 1.0  0.489299142657  0.292708790254  0.618358795516
 C  C 1.0  0.881125232467  0.987120562935  0.704385976703
 C  C 1.0  0.027103819038  0.806091426104  0.335628839404
 C  C 1.0  0.624519649711  0.489825598497  0.704786618498
 C  C 1.0  0.473934330265  0.306329732398  0.339255245825
 C  C 1.0  0.161135430508  0.973001647642  0.691998203609
 C  C 1.0  0.160261368523  0.51797774794  0.187483112768
 C  C 1.0  0.798364385844  0.3776065339  0.007715743749
 C  C 1.0  0.796375786091  0.122788583937  0.507337923609
 C  C 1.0  0.842114532086  0.022300151844  0.307509632342
 C  C 1.0  0.84420183913  0.474040082384  0.806242670223
 C  C 1.0  0.207357970764  0.617348421308  0.98691369625
 C  C 1.0  0.205530044493  0.874118595489  0.491038499964
 C  C 1.0  0.693123920366  0.159299928082  0.023086098065
 C  C 1.0  0.011130454396  0.794536989543  0.619869148941
 C  C 1.0  0.511947377318  0.795646355249  0.874877859676
 C  C 1.0  0.188169921908  0.154945181612  0.478403368669
 C  C 1.0  0.705180279002  0.880178497758  1.008813927042
 C  C 1.0  0.708427160509  0.622430636718  0.507954709113
 C  C 1.0  0.346128123177  0.477376052715  0.687730674054
 C  C 1.0  0.339280194363  0.022347319885  0.191974766852
 C  C 1.0  0.250419708647  0.168101203587  0.123315295548
 C  C 1.0  0.253897901619  0.331102004402  0.622740197606
 C  C 1.0  0.553671415828  0.627734315927  0.317356778312
 C  C 1.0  0.548534529734  0.879328743944  0.821947363496
 C  C 1.0  0.873764905746  0.318875960893  0.05027666479
 C  C 1.0  0.167090940795  0.623127484134  0.747405339575
 C  C 1.0  0.623430518915  0.824255149889  0.046044454175
 C  C 1.0  0.334542505524  0.12299239855  0.749419487771
 C  C 1.0  0.125899490567  0.247703526713  0.82938822362
 C  C 1.0  0.32277207985  0.547845307456  0.373030068003
 C  C 1.0  0.826151145875  0.548244637425  0.118212319815
 C  C 1.0  0.623473648868  0.248324438609  0.666183224506
 C  C 1.0  0.050882865274  0.87193270132  0.68009008952
 C  C 1.0  0.049228032684  0.61786369543  0.172907820311
 C  C 1.0  0.752665955995  0.329470969383  0.874051811544
 C  C 1.0  0.749655380794  0.168808188859  0.373286992012
 C  C 1.0  0.836944578129  0.122431957244  0.749220460854
 C  C 1.0  0.126255968067  0.819552423697  0.447545982578
 C  C 1.0  0.67113755169  0.624011592791  0.750070357265
 C  C 1.0  0.370987537364  0.317737179345  0.44789671948
 C  C 1.0  0.171955220412  0.875265212588  0.246943261776
 C  C 1.0  0.880697340302  0.174268386541  0.547381531638
 C  C 1.0  0.332725486294  0.375539635103  0.246206054613
 C  C 1.0  0.626482523207  0.677583002275  0.548226443107
 C  C 1.0  0.325092850023  0.951179217505  0.875233400659
 C  C 1.0  0.125139384413  0.248184663093  0.332923982083
 C  C 1.0  0.627632415586  0.252427002646  0.169261102625
 C  C 1.0  0.824146687575  0.950574586717  0.621451253041
 C  C 1.0  0.125543675292  0.674890344549  0.950547712909
 C  C 1.0  0.829007238672  0.373615439949  0.252333396826
 C  C 1.0  0.381298687888  0.175750989499  0.950845648358
 C  C 1.0  0.66722274467  0.875386396576  0.248909113688
 C  C 1.0  0.02303372173  0.688164661363  0.841707770892
 C  C 1.0  0.875181498224  0.507121542952  0.204594105636
 C  C 1.0  0.481046444716  0.189313434  0.839480618784
 C  C 1.0  0.622339020508  0.010367365937  0.203740304703
 C  C 1.0  0.013050099662  0.704631976464  0.120837743461
 C  C 1.0  0.69202304333  0.338155987533  0.524711145585
 C  C 1.0  0.195663967187  0.339228443631  0.972951716233
 C  C 1.0  0.510392077832  0.704303827447  0.37586626285
 C  C 1.0  0.12311045886  0.008727234997  0.292196125712
 C  C 1.0  0.982484178733  0.186723191592  0.656940942985
 C  C 1.0  0.380408018204  0.509056919882  0.292983259554
 C  C 1.0  0.527034356509  0.691152130904  0.659788853676
 C  C 1.0  0.311580461211  0.839518655557  0.974445546252
 C  C 1.0  0.990237429628  0.203325833226  0.378041041852
 C  C 1.0  0.493329860057  0.205526847012  0.124239245223
 C  C 1.0  0.809682027659  0.840078484826  0.520937346215
 C  C 1.0  0.750375732125  0.83276937292  0.874660615546
 C  C 1.0  0.75459203134  0.670064763222  0.374314871394
 C  C 1.0  0.456073032376  0.376160119172  0.674604817783
 C  C 1.0  0.450960776275  0.121685602082  0.178192442503
 C  C 1.0  0.878032611736  0.749565234583  0.165426783337
 C  C 1.0  0.679527863425  0.449539209513  0.624615859787
 C  C 1.0  0.182361530401  0.448790321692  0.871168950043
 C  C 1.0  0.376049457031  0.749360399144  0.32906257941
 C  C 1.0  0.952230143514  0.123258575788  0.320742140589
 C  C 1.0  0.954371729842  0.373042804633  0.819453826165
 C  C 1.0  0.252027933953  0.662813063054  0.121909888589
 C  C 1.0  0.252137652282  0.827670024225  0.624943241962
 C  C 1.0  0.681010041269  0.050126793257  0.125406859025
 C  C 1.0  0.87705063637  0.747885188632  0.665986594538
 C  C 1.0  0.378101940594  0.749269540721  0.828240436381
 C  C 1.0  0.17452259342  0.044248703873  0.378112824759
 C  C 1.0  0.035362413001  0.209349316719  0.157824328495
 C  C 1.0  0.136495487744  0.520774136544  0.770405686593
 C  C 1.0  0.545866070373  0.805890031098  0.121440520469
 C  C 1.0  0.36663517822  0.021009281949  0.771955722434
 C  C 1.0  0.273912741882  0.135800543397  0.021596125583
 C  C 1.0  0.275672689908  0.364394835802  0.520917387154
 C  C 1.0  0.629882548748  0.550700739397  0.300021869791
 C  C 1.0  0.625178174245  0.95531828922  0.802663100629
 C  C 1.0  0.02473052081  0.27105189356  0.863545953709
 C  C 1.0  0.304638259851  0.623364430785  0.450493085217
 C  C 1.0  0.807578354519  0.625851062259  0.042916858505
 C  C 1.0  0.521831009192  0.270366391759  0.632755812459
 C  C 1.0  0.867610700641  0.019956520723  0.726847731192
 C  C 1.0  0.050227121305  0.801330749506  0.370538900673
 C  C 1.0  0.63867964765  0.522234579333  0.727438384357
 C  C 1.0  0.449927939648  0.301180363074  0.373506016793
 C  C 1.0  0.126595201318  0.949438592641  0.697196965311
 C  C 1.0  0.12557199727  0.541442882424  0.192059305226
 C  C 1.0  0.775698906419  0.363108136814  0.975444639285
 C  C 1.0  0.773453481531  0.136710118174  0.475000636118
 C  C 1.0  0.87668420042  0.045879642117  0.302635241682
 C  C 1.0  0.878739710942  0.450403414218  0.801351463455
 C  C 1.0  0.229644193401  0.631407870063  0.019638226514
 C  C 1.0  0.228441618529  0.860067099291  0.523326726535
 C  C 1.0  0.698076369622  0.124931071423  0.046965993156
 C  C 1.0  0.978763839527  0.771687696721  0.63386578947
 C  C 1.0  0.479747991783  0.772782468475  0.860595309545
 C  C 1.0  0.192927252654  0.120233036238  0.455017689758
 C  C 1.0  0.727589474285  0.865595324434  0.976402937341
 C  C 1.0  0.731286290337  0.636421769127  0.475598678672
 C  C 1.0  0.380622716822  0.453683682806  0.692608794543
 C  C 1.0  0.374059796724  0.045648812969  0.196772649357
 C  C 1.0  0.252669841695  0.157714837781  0.082654547045
 C  C 1.0  0.255593028906  0.341624906989  0.582072954103
 C  C 1.0  0.579782076025  0.597174410675  0.304947402662
 C  C 1.0  0.574766510481  0.909392043852  0.808686407735
 C  C 1.0  0.904740628857  0.306660283572  0.075966880878
 C  C 1.0  0.157385283469  0.582283747007  0.749450559325
 C  C 1.0  0.592707108993  0.811458355414  0.071761259089
 C  C 1.0  0.344572681325  0.082224685561  0.751379438513
 C  C 1.0  0.085426037921  0.249920542205  0.840510955179
 C  C 1.0  0.31000799743  0.573620362882  0.403721382736
 C  C 1.0  0.813173330974  0.574909936308  0.088373133963
 C  C 1.0  0.582903093336  0.249944099822  0.655331942504
 C  C 1.0  0.07675530779  0.902702140129  0.692449398719
 C  C 1.0  0.075343513276  0.587623573042  0.186061333924
 C  C 1.0  0.754739184277  0.340354443449  0.914602335957
 C  C 1.0  0.752056343115  0.158494119006  0.413957105174
 C  C 1.0  0.846637457401  0.081573234226  0.747407913589
 C  C 1.0  0.096087824045  0.806809812925  0.421141807101
 C  C 1.0  0.66070621498  0.583350562427  0.748230961846
 C  C 1.0  0.402298637218  0.305710452296  0.42253613298
 C  C 1.0  0.160890192331  0.9157647522  0.248832216478
 C  C 1.0  0.911490823409  0.186859448839  0.573123616518
 C  C 1.0  0.343720099256  0.416037884235  0.248588742892
 C  C 1.0  0.596178705336  0.69038759232  0.574445814502
 C  C 1.0  0.312216271904  0.92494101061  0.905458867298
 C  C 1.0  0.084357981398  0.246403499696  0.342918304688
 C  C 1.0  0.58700509345  0.250139686208  0.158762546763
 C  C 1.0  0.811065840606  0.924690356627  0.590976737351
 C  C 1.0  0.094524642733  0.687560780106  0.925119407047
 C  C 1.0  0.839718628709  0.414166180512  0.24982935886
 C  C 1.0  0.411560046057  0.188579818248  0.924585442846
 C  C 1.0  0.657389175159  0.916201368948  0.246945898228
 C  C 1.0  0.047139099885  0.692950297012  0.875933460208
 C  C 1.0  0.861509290321  0.474987890156  0.227933326533
 C  C 1.0  0.457678343038  0.194097125852  0.874217571926
 C  C 1.0  0.636141933246  0.977667836828  0.226223763623
 C  C 1.0  0.980354858882  0.727237084954  0.134399604419
 C  C 1.0  0.69697764933  0.372955867665  0.547959785316
 C  C 1.0  0.200415987204  0.373616222218  0.949058552492
 C  C 1.0  0.477815691016  0.726844147053  0.361872077532
 C  C 1.0  0.137824437943  0.976524240683  0.269596312416
 C  C 1.0  0.958529705154  0.191860460137  0.622660670126
 C  C 1.0  0.36628397281  0.47676707722  0.270094323404
 C  C 1.0  0.550173291333  0.695917197161  0.624896419388
 C  C 1.0  0.306725806556  0.874401210914  0.951326883112
 C  C 1.0  0.022881266967  0.225869446988  0.364244203163
 C  C 1.0  0.525853501658  0.228626570832  0.137437745229
 C  C 1.0  0.805137152459  0.874707260921  0.544505649667
 C  C 1.0  0.748295099783  0.843161848151  0.915337664707
 C  C 1.0  0.752505860644  0.658949811679  0.414785421463
 C  C 1.0  0.430324620571  0.406877427756  0.687304484874
 C  C 1.0  0.424583224557  0.091571543581  0.191154501348
 C  C 1.0  0.918836227574  0.747834737885  0.1555229266
 C  C 1.0  0.691912355204  0.423273693269  0.594189219298
 C  C 1.0  0.195026901703  0.42310439649  0.901977630629
 C  C 1.0  0.416659832836  0.747522692898  0.339733669354
 C  C 1.0  0.92649811703  0.092550751901  0.307976519761
 C  C 1.0  0.928539499619  0.403689540631  0.806706837132
 C  C 1.0  0.250122219245  0.652959124814  0.0810948995
 C  C 1.0  0.249817323976  0.838081891955  0.584291654015
 C  C 1.0  0.693269798056  0.075588000372  0.094254228206
 C  C 1.0  0.917729161199  0.750283439858  0.655697882626
 C  C 1.0  0.418770684234  0.751528281738  0.838584080184
 C  C 1.0  0.187355703183  0.070151611897  0.408651968082
 C  C 1.0  0.95552888507  0.266985974807  0.101236292706
 C  C 1.0  0.142435542074  0.518024188153  0.728049208921
 C  C 1.0  0.543028721641  0.770604889336  0.097379299951
 C  C 1.0  0.359580237021  0.01804506606  0.729797454958
 C  C 1.0  0.23158231129  0.141702108327  0.018567282131
 C  C 1.0  0.233444879251  0.357668449197  0.51833778605
 C  C 1.0  0.605873078644  0.547137676065  0.264759079093
 C  C 1.0  0.601370539512  0.957987497079  0.767179306269
 C  C 1.0  0.021762134732  0.228687852076  0.857881212985
 C  C 1.0  0.269425475668  0.599216143505  0.453683858759
 C  C 1.0  0.771945469732  0.60232780311  0.039986858926
 C  C 1.0  0.519328791814  0.227954511537  0.638426143986
 C  C 1.0  0.861617285403  0.017452073413  0.769200179624
 C  C 1.0  0.046892637905  0.766014416382  0.394487531134
 C  C 1.0  0.644360618433  0.519498208804  0.769826671637
 C  C 1.0  0.453260981157  0.265975289744  0.397626537529
 C  C 1.0  0.102652709483  0.952902415049  0.73252006153
 C  C 1.0  0.10165035344  0.538722719684  0.227450168774
 C  C 1.0  0.733330105861  0.357380295477  0.978335736109
 C  C 1.0  0.731102686461  0.142318377027  0.478051831309
 C  C 1.0  0.90096999529  0.042472012771  0.267536903638
 C  C 1.0  0.902745726105  0.453473135085  0.766032490788
 C  C 1.0  0.271904990488  0.637891119092  0.017022120992
 C  C 1.0  0.27081272001  0.854491588166  0.520265599446
 C  C 1.0  0.73301589891  0.100469481553  0.043322455661
 C  C 1.0  0.981831504316  0.729347632011  0.639634338579
 C  C 1.0  0.482837286073  0.730460256778  0.854789515135
 C  C 1.0  0.228252175764  0.096263797508  0.458039805866
 C  C 1.0  0.769770571603  0.858746644015  0.979403641171
 C  C 1.0  0.773795872699  0.641091998989  0.478315470131
 C  C 1.0  0.404542574293  0.456601500418  0.727987099761
 C  C 1.0  0.397934439504  0.042527922157  0.232174026825
 C  C 1.0  0.217831799614  0.154513177158  0.058074089848
 C  C 1.0  0.22043324259  0.344378866557  0.557890487624
 C  C 1.0  0.574203297217  0.576846293868  0.267766908491
 C  C 1.0  0.56952633469  0.928525981195  0.770850283715
 C  C 1.0  0.925580819298  0.269881288819  0.069832735225
 C  C 1.0  0.154588382643  0.557806094955  0.714487782804
 C  C 1.0  0.573015788966  0.773996357668  0.066037733336
 C  C 1.0  0.346719108669  0.05764507057  0.716451158375
 C  C 1.0  0.06105949584  0.215015253601  0.844485892604
 C  C 1.0  0.272707993074  0.567785353513  0.423729344251
 C  C 1.0  0.775322856196  0.570200691846  0.069140218888
 C  C 1.0  0.558968617896  0.214713900119  0.651445538903
 C  C 1.0  0.071177522497  0.922969947322  0.729646674531
 C  C 1.0  0.06993772443  0.568311424498  0.223780807836
 C  C 1.0  0.719755707819  0.344134991343  0.938915902089
 C  C 1.0  0.717260734934  0.155034058057  0.43857410765
 C  C 1.0  0.84933581758  0.057277874928  0.782498677055
 C  C 1.0  0.076231596555  0.769347022121  0.426436054955
 C  C 1.0  0.657139773419  0.559135298868  0.783307545925
 C  C 1.0  0.42286860068  0.268751401486  0.428620547971
 C  C 1.0  0.157301561661  0.940040711583  0.21379734798
 C  C 1.0  0.931087572993  0.224441311291  0.567764208449
 C  C 1.0  0.348211068453  0.440402202263  0.213738738029
 C  C 1.0  0.576085529871  0.72768738498  0.568830284355
 C  C 1.0  0.274759724853  0.9303103495  0.92528030376
 C  C 1.0  0.060147037717  0.281535705461  0.345988941407
 C  C 1.0  0.562683634709  0.285038249016  0.154350022124
 C  C 1.0  0.773650197918  0.930566424207  0.571207562428
 C  C 1.0  0.074690469035  0.724921170013  0.931084411444
 C  C 1.0  0.844096527946  0.438733680829  0.284569589539
 C  C 1.0  0.431073749592  0.226222390485  0.929748570257
 C  C 1.0  0.65431151615  0.940503402342  0.281991434986
 C  C 1.0  0.044363854671  0.728213352816  0.900042463206
 C  C 1.0  0.856857857609  0.478149758262  0.270404987983
 C  C 1.0  0.460618534257  0.229566164879  0.897988672578
 C  C 1.0  0.641889363587  0.980213491701  0.268599401427
 C  C 1.0  0.982860661575  0.769630423159  0.140069848732
 C  C 1.0  0.732479962023  0.396634248422  0.544797339109
 C  C 1.0  0.235710594788  0.397668557561  0.951919929312
 C  C 1.0  0.480268596529  0.769300176888  0.356704068418
 C  C 1.0  0.14389356565  0.979468071535  0.227279328714
 C  C 1.0  0.961238450886  0.227457049579  0.599032194754
 C  C 1.0  0.361342285852  0.479726294995  0.2276304547
 C  C 1.0  0.54661850873  0.731058355841  0.600707378698
 C  C 1.0  0.271412680845  0.898370865558  0.95467204547
 C  C 1.0  0.020365726462  0.26824032136  0.358458203103
 C  C 1.0  0.523119238727  0.271153913839  0.141811468719
 C  C 1.0  0.769998067895  0.898974766081  0.541465542122
 C  C 1.0  0.783190423617  0.845641713462  0.939924747861
 C  C 1.0  0.787511195915  0.654209199126  0.438882100677
 C  C 1.0  0.435907918367  0.426604154493  0.72477313927
 C  C 1.0  0.42980833842  0.07198606243  0.228773271883
 C  C 1.0  0.943031425649  0.782965890351  0.152416221945
 C  C 1.0  0.729373044124  0.428435497527  0.57429200978
 C  C 1.0  0.232409135553  0.428917306515  0.921831463396
 C  C 1.0  0.440677472353  0.782662787062  0.343816254818
 C  C 1.0  0.932460436943  0.072375141033  0.270794212909
 C  C 1.0  0.934211639653  0.423556503354  0.769301007435
 C  C 1.0  0.285151548786  0.650491065477  0.056710322125
 C  C 1.0  0.284649005385  0.841692025168  0.559743582446
 C  C 1.0  0.730094592412  0.069313511031  0.073542596992
 C  C 1.0  0.942381702992  0.715502632168  0.652397654699
 C  C 1.0  0.443333867739  0.716687286433  0.842007127879
 C  C 1.0  0.224857730723  0.064632926858  0.428344505179
 C  C 1.0  0.983181163042  0.237143411229  0.111325040163
 C  C 1.0  0.13499371266  0.481541639349  0.70851497959
 C  C 1.0  0.51628503572  0.74004199977  0.107812149079
 C  C 1.0  0.366934793423  0.98162149568  0.71014845769
 C  C 1.0  0.212165979983  0.133505222724  0.982196072207
 C  C 1.0  0.213428596407  0.365555360824  0.482235309118
 C  C 1.0  0.616449026443  0.519815564904  0.23473404418
 C  C 1.0  0.612380245134  0.984252190268  0.736382692979
 C  C 1.0  0.98560309944  0.209132186623  0.86658871941
 C  C 1.0  0.239162992975  0.609583234956  0.480836995626
 C  C 1.0  0.741264094353  0.613706829471  0.01377160008
 C  C 1.0  0.483137223138  0.20815552861  0.630198443198
 C  C 1.0  0.869319100721  0.981171441486  0.788988792045
 C  C 1.0  0.020138524561  0.735608745493  0.383632051695
 C  C 1.0  0.636147369849  0.483175992557  0.789380250484
 C  C 1.0  0.480901636729  0.236069210079  0.387618970066
 C  C 1.0  0.113226347037  0.980233695977  0.762538292533
 C  C 1.0  0.112436506455  0.512318858831  0.258209810457
 C  C 1.0  0.71376687319  0.366020816288  0.01453106282
 C  C 1.0  0.71175219135  0.13384531085  0.514377243545
 C  C 1.0  0.89058974219  0.015249259904  0.237355587797
 C  C 1.0  0.892236065826  0.480511393145  0.735721177723
 C  C 1.0  0.291784976838  0.630292098231  0.980793236792
 C  C 1.0  0.290141987908  0.862959425846  0.48390972059
 C  C 1.0  0.762923620117  0.110371854158  0.015662239452
 C  C 1.0  0.018168834686  0.709957923186  0.631340111616
 C  C 1.0  0.519215864868  0.711133417399  0.86316826447
 C  C 1.0  0.258819059759  0.107068306807  0.484634891475
 C  C 1.0  0.789421851855  0.866453695886  0.01573776939
 C  C 1.0  0.793286751303  0.631861252878  0.514411570071
 C  C 1.0  0.393973333374  0.483448099753  0.7584188588
 C  C 1.0  0.387079509021  0.015797151652  0.262640211506
 C  C 1.0  0.179864101114  0.15903861554  0.075660891086
 C  C 1.0  0.182734271221  0.339191419061  0.575797234741
 C  C 1.0  0.542991116838  0.58829790682  0.242171614933
 C  C 1.0  0.53874304156  0.915974565578  0.745229658255
 C  C 1.0  0.914179767383  0.244349893972  0.038580815071
 C  C 1.0  0.159037202879  0.575619128549  0.676612789799
 C  C 1.0  0.585552907635  0.748296854926  0.035359906674
 C  C 1.0  0.341429909427  0.075280048975  0.678629937513
 C  C 1.0  0.078673387842  0.177058173824  0.840101781928
 C  C 1.0  0.247220291907  0.536744877562  0.411610589263
 C  C 1.0  0.74938314366  0.53955429697  0.081293735243
 C  C 1.0  0.577247171133  0.177017269063  0.655654555613
 C  C 1.0  0.040276032754  0.911097734759  0.755427011886
 C  C 1.0  0.03912516115  0.580781592227  0.249365006746
 C  C 1.0  0.681856551521  0.339676903054  0.921157055723
 C  C 1.0  0.679231886047  0.159347269212  0.421101382251
 C  C 1.0  0.844708118632  0.075257318472  0.820261695717
 C  C 1.0  0.087830186021  0.743727625647  0.457559700804
 C  C 1.0  0.661326722173  0.577182386525  0.821117935067
 C  C 1.0  0.411045006242  0.243061440109  0.45960167954
 C  C 1.0  0.161994341768  0.922162258544  0.175968794791
 C  C 1.0  0.918356880977  0.250474488528  0.537405576888
 C  C 1.0  0.344292478923  0.4227889631  0.175718347335
 C  C 1.0  0.587669979779  0.75309490695  0.53751608763
 C  C 1.0  0.249167209822  0.961350289794  0.913369180032
 C  C 1.0  0.078181083082  0.319294970457  0.341477537361
 C  C 1.0  0.580492907268  0.323016889901  0.157913423396
 C  C 1.0  0.748363261793  0.961753228244  0.583360194289
 C  C 1.0  0.08730041395  0.750574466268  0.961780155816
 C  C 1.0  0.840419036646  0.421147674977  0.322655857975
 C  C 1.0  0.418846498361  0.252063262808  0.960435334415
 C  C 1.0  0.658585963332  0.92263181457  0.319835365257
 C  C 1.0  0.017288494926  0.758619029222  0.889931961017
 C  C 1.0  0.866038271966  0.514520003402  0.289412277468
 C  C 1.0  0.487177589182  0.260135512004  0.887104794927
 C  C 1.0  0.633802225096  0.01637361314  0.2884056581
 C  C 1.0  0.019139966315  0.789325621327  0.132012037215
 C  C 1.0  0.762881586731  0.385657158963  0.518100596035
 C  C 1.0  0.266072479727  0.387482981639  0.979000650723
 C  C 1.0  0.516288310055  0.789129151824  0.365437189581
 C  C 1.0  0.135430538683  0.015746154015  0.207754507482
 C  C 1.0  -0.011841892628  0.257808611734  0.60968655695
 C  C 1.0  0.370303784515  0.515924140028  0.208240205873
 C  C 1.0  0.519553617266  0.761301718022  0.611362334052
 C  C 1.0  0.241004391256  0.88740818441  0.981396560915
 C  C 1.0  0.984132636447  0.287976273438  0.366555891802
 C  C 1.0  0.486958586562  0.290525694113  0.132594181499
 C  C 1.0  0.739465418345  0.888565172301  0.514630198974
 C  C 1.0  0.821064303234  0.840343519872  0.922417422074
 C  C 1.0  0.82540385217  0.657905083571  0.420906325503
 C  C 1.0  0.466529295672  0.414085109082  0.750566515814
 C  C 1.0  0.46076971182  0.083986722359  0.254426121825
 C  C 1.0  0.92488966601  0.82070719887  0.156708650569
 C  C 1.0  0.755232829545  0.459331781711  0.585940799936
 C  C 1.0  0.257971885197  0.45985655469  0.909639762624
 C  C 1.0  0.422576021958  0.820446972195  0.33994581048
 C  C 1.0  0.96357515137  0.084428171995  0.245346676176
 C  C 1.0  0.965171578311  0.411384516641  0.743727716259
 C  C 1.0  0.322943796451  0.655528640267  0.074453739655
 C  C 1.0  0.322646605503  0.837506574332  0.577346213593
 C  C 1.0  0.755629892455  0.038180809442  0.085285054122
 C  C 1.0  0.924970174486  0.677458804027  0.656873134524
 C  C 1.0  0.425696595423  0.678708772585  0.837864891193
 C  C 1.0  0.250557447737  0.033872130507  0.416005862022
 C  C 1.0  0.902132521434  0.358739593958  0.13031523019
 C  C 1.0  0.130347250836  0.579744952928  0.817824314053
 C  C 1.0  0.594688493055  0.863228404303  0.126344041959
 C  C 1.0  0.373558966582  0.080163106422  0.818926876566
 C  C 1.0  0.320343238563  0.129346000781  0.081256419832
 C  C 1.0  0.323435773267  0.370095501545  0.579506181199
 C  C 1.0  0.63330911186  0.598801607307  0.35810661724
 C  C 1.0  0.629048301567  0.907297017978  0.860740851816
 C  C 1.0  0.084218828068  0.318061169579  0.867893984691
 C  C 1.0  0.362213534057  0.627823614987  0.401820761789
 C  C 1.0  0.865449271048  0.628855114641  0.091245338756
 C  C 1.0  0.580741631473  0.318221284624  0.628409979308
 C  C 1.0  0.874274986634  0.078739208278  0.679351926877
 C  C 1.0  0.09814353028  0.859564963672  0.367357836873
 C  C 1.0  0.633163328473  0.581265967723  0.680187324853
 C  C 1.0  0.401780120046  0.359082595061  0.369050460476
 C  C 1.0  0.130577824023  0.900568401048  0.639804863557
 C  C 1.0  0.129889985339  0.589721954218  0.134257943655
 C  C 1.0  0.822840631015  0.367998492069  0.916256665542
 C  C 1.0  0.820115912713  0.130627975493  0.415706606472
 C  C 1.0  0.871894405444  0.095075079166  0.359675901726
 C  C 1.0  0.87451026914  0.402119284862  0.859203326686
 C  C 1.0  0.182206336477  0.624871171474  0.078482155683
 C  C 1.0  0.181739660189  0.865687610453  0.58276680378
 C  C 1.0  0.641381154576  0.130095563356  0.096637239618
 C  C 1.0  0.919305865478  0.818359545902  0.627987572223
 C  C 1.0  0.420450621135  0.819372134603  0.866766661982
 C  C 1.0  0.135884183421  0.124982919618  0.406040951162
 C  C 1.0  0.680664287231  0.872034992061  0.917136620722
 C  C 1.0  0.684175970226  0.632272680357  0.41627264531
 C  C 1.0  0.375997953487  0.404972855449  0.635230201683
 C  C 1.0  0.37071104984  0.093896969143  0.138688753977
 C  C 1.0  0.132539405073  0.917191506466  0.316550209278
 C  C 1.0  0.909609966656  0.134548660924  0.627157149278
 C  C 1.0  0.369690488408  0.417297608861  0.317302785332
 C  C 1.0  0.598545432041  0.638118990048  0.628685818043
 C  C 1.0  0.364195746311  0.870650353569  0.902590689605
 C  C 1.0  0.081275361137  0.178184488378  0.370482250945
 C  C 1.0  0.585062828101  0.181790595392  0.131956734216
 C  C 1.0  0.862807288426  0.870066397019  0.593030378211
 C  C 1.0  0.095914900751  0.63561617352  0.87059289001
 C  C 1.0  0.866893438209  0.415448458388  0.181587231378
 C  C 1.0  0.40916440253  0.136399340595  0.870430207514
 C  C 1.0  0.629905118669  0.918859867137  0.178794285897
 C  C 1.0  0.921534235129  0.680061991982  0.127419952804
 C  C 1.0  0.638535520603  0.36984927769  0.595486223462
 C  C 1.0  0.142182000743  0.3693335287  0.901155735438
 C  C 1.0  0.418934171789  0.679422955849  0.367074476538
 C  C 1.0  0.6366478408  0.864228766015  0.131240068919
 C  C 1.0  0.415171816212  0.07915927278  0.825669522318
 C  C 1.0  0.342642898397  0.153614406846  0.107502688969
 C  C 1.0  0.330968032178  0.411570308433  0.578268686687
 C  C 1.0  0.647348861667  0.931046026308  0.890484049694
 C  C 1.0  0.91575660066  0.077283602118  0.67189545213
 C  C 1.0  0.140141361906  0.862043530747  0.363413602855
 C  C 1.0  0.110003235252  0.339851671655  0.842666113723
 C  C 1.0  0.363862243233  0.632432578747  0.359848695271
 C  C 1.0  0.895341695357  0.647382474049  0.067868262391
 C  C 1.0  0.580986162154  0.325822448123  0.586933989356
 C  C 1.0  0.860158902688  0.360034336975  0.134933743295
 C  C 1.0  0.088941434596  0.578527821911  0.825731063065
 C  C 1.0  0.86718206732  0.1370504197  0.360620063742
 C  C 1.0  0.856704646238  0.426350669205  0.888877049859
 C  C 1.0  0.159792596076  0.64926017926  0.104528519625
 C  C 1.0  0.174500587519  0.907227540033  0.581972305138
 C  C 1.0  0.64037321875  0.134985523498  0.138594299141
 C  C 1.0  0.42158588292  0.826107919087  0.908380024068
 C  C 1.0  0.591589920614  0.58074412932  0.673145649908
 C  C 1.0  0.359980354398  0.361886070259  0.363549067506
 C  C 1.0  0.662271611118  0.657408015376  0.390510921406
 C  C 1.0  0.920208113377  0.825591751211  0.586448577206
 C  C 1.0  0.135385522034  0.129997566556  0.364092984439
 C  C 1.0  0.637775585924  0.640729422879  0.360825514415
 C  C 1.0  0.925832668775  0.388811934698  0.14815003739
 C  C 1.0  0.155022182617  0.605899122887  0.839804897477
 C  C 1.0  0.084421758784  0.325531014002  0.909401549468
 C  C 1.0  0.392040333203  0.645749448241  0.425763833301
 C  C 1.0  0.866691700045  0.632672233061  0.133306971146
 C  C 1.0  0.606166086634  0.34026872589  0.653792261125
 C  C 1.0  0.148256182643  0.924431032115  0.609762402069
 C  C 1.0  0.134556715569  0.631700624388  0.133028968997
 C  C 1.0  0.8302117746  0.409523965086  0.916666483245
 C  C 1.0  0.842218581946  0.154818675419  0.389229126124
 C  C 1.0  0.657809279469  0.607150770371  0.657871625235
 C  C 1.0  0.426814860996  0.388660089422  0.352171694768
 C  C 1.0  0.326762035777  0.087665032797  0.080822318996
 C  C 1.0  0.345729411234  0.345586467748  0.605556719074
 C  C 1.0  0.633404272641  0.86529239654  0.862234848238
 C  C 1.0  0.157284384888  0.891493438333  0.338972979409
 C  C 1.0  0.933186776543  0.104485668211  0.645166574953
 C  C 1.0  0.394160220517  0.852390619526  0.926079892269
 C  C 1.0  0.611598221909  0.159862883252  0.156244510271
 C  C 1.0  0.432760059753  0.106571127575  0.852067799409
 C  C 1.0  0.654255029094  0.892654180654  0.156532033072
 C  C 1.0  0.107456257482  0.155711164017  0.346297599923
 C  C 1.0  0.892655348102  0.85205598581  0.569189619847
 C  C 1.0  0.367138585583  0.135044054699  0.866231019612
 C  C 1.0  0.588411562721  0.920214849844  0.17139416748
 C  C 1.0  0.658263714008  0.847683903207  0.891036266532
 C  C 1.0  0.371076913181  0.363023137891  0.634036985387
 C  C 1.0  0.352576661238  0.070144208825  0.108835232092
 C  C 1.0  0.090894249573  0.917149923313  0.323193547675
 C  C 1.0  0.867644064281  0.133590922329  0.632025824069
 C  C 1.0  0.895357544123  0.65735345728  0.151371082837
 C  C 1.0  0.635682510939  0.365152366166  0.637379937778
 C  C 1.0  0.112665261698  0.3518193079  0.925800768452
 C  C 1.0  0.419675030136  0.672195626441  0.408618782148
 C  C 1.0  0.137816702875  0.634426765739  0.865261009344
 C  C 1.0  0.908445965638  0.41644342691  0.174420975837
 C  C 1.0  0.135193752774  0.858600307953  0.638230033939
 C  C 1.0  0.148181556962  0.565996366227  0.104494046805
 C  C 1.0  0.844882548483  0.343137503567  0.890328753341
 C  C 1.0  0.827319891847  0.08909393136  0.417045793937
 C  C 1.0  0.36534716412  0.866418560424  0.8605701064
 C  C 1.0  0.583781921318  0.174377055198  0.090451885084
 C  C 1.0  0.41102894524  0.417011585343  0.325638277227
 C  C 1.0  0.640527986017  0.636206015496  0.633054935348
 C  C 1.0  0.650804046499  0.574227898008  0.387697053416
 C  C 1.0  0.079357897244  0.170598598786  0.411920059745
 C  C 1.0  0.864200165975  0.865346453534  0.634999013035
 C  C 1.0  0.676892852181  0.590735042411  0.416041471804
 C  C 1.0  0.071972199356  0.605741577628  0.852741419233
 C  C 1.0  0.842564066299  0.389004849926  0.159613746034
 C  C 1.0  0.922692294026  0.673633645129  0.085757145569
 C  C 1.0  0.609148014885  0.35229530943  0.570708734012
 C  C 1.0  0.1395912287  0.364508209159  0.859256477754
 C  C 1.0  0.392848742405  0.657271481505  0.342492333617
 C  C 1.0  0.853867919155  0.071555579117  0.38976344359
 C  C 1.0  0.86976956915  0.360175153786  0.861184904322
 C  C 1.0  0.174958838846  0.583351724706  0.077302464472
 C  C 1.0  0.159818993967  0.841180237788  0.609108686831
 C  C 1.0  0.34398154558  0.391595264208  0.338625809522
 C  C 1.0  0.574498300365  0.608460955834  0.646758036563
 C  C 1.0  0.673791080672  0.913633922295  0.917972962133
 C  C 1.0  0.357907004043  0.428763570414  0.605393470919
 C  C 1.0  0.366849370258  0.135936501444  0.136816958596
 C  C 1.0  0.849983341996  0.105056363791  0.65714749761
 C  C 1.0  0.073908409056  0.889059009282  0.349256667738
 C  C 1.0  0.61121883002  0.147908960282  0.073032934685
 C  C 1.0  0.394099993895  0.841716646599  0.842661850651
 C  C 1.0  0.571035479693  0.893114049225  0.144540566689
 C  C 1.0  0.349357184293  0.106301263226  0.841435153076
 C  C 1.0  0.893045182692  0.840424144111  0.652468172909
 C  C 1.0  0.105944433361  0.143361686785  0.429459942809
 Cu  Cu 1.0  0.439320958288  0.630055460744  0.152926651697
 Cu  Cu 1.0  0.158030987684  0.06217651868  0.869394473354
 Cu  Cu 1.0  0.157583141364  0.434903534511  0.368127135494
 Cu  Cu 1.0  0.659545497153  0.43801903082  0.127294747392
 Cu  Cu 1.0  0.657970750244  0.062578828085  0.627400830205
 Cu  Cu 1.0  0.871508041796  0.15437913209  0.936087353127
 Cu  Cu 1.0  0.130764725669  0.654449921876  0.560755072235
 Cu  Cu 1.0  0.632176467522  0.657829304822  0.935536760523
 Cu  Cu 1.0  0.368199350707  0.152893740804  0.562072612395
 Cu  Cu 1.0  0.937740936174  0.867431327587  0.845232602704
 Cu  Cu 1.0  0.939560732029  0.62762475887  0.340425882345
 Cu  Cu 1.0  0.566250930927  0.368425754891  0.842283831804
 Cu  Cu 1.0  0.563188013088  0.129000870081  0.343843281345
 Cu  Cu 1.0  0.845538160104  0.935957080157  0.128822142517
 Cu  Cu 1.0  0.846980514665  0.560914150364  0.628152769948
 Cu  Cu 1.0  0.347930982108  0.562341054024  0.866639638665
 Cu  Cu 1.0  0.342496527408  0.934663023877  0.370192354024
 Cu  Cu 1.0  0.133132499056  0.842383438964  0.060964078878
 Cu  Cu 1.0  0.870956495463  0.341967989296  0.437819103001
 Cu  Cu 1.0  0.373822850543  0.343779056369  0.060474640526
 Cu  Cu 1.0  0.63029859953  0.843805563072  0.435692783233
 Cu  Cu 1.0  0.090913067319  0.171649033664  0.210146528851
 Cu  Cu 1.0  0.09392617185  0.324700512887  0.709887340277
 Cu  Cu 1.0  0.412192282531  0.671809823845  0.208443214695
 Cu  Cu 1.0  0.411836161869  0.826303667803  0.711543229497
 Cu  Cu 1.0  0.21324545763  0.088600924829  0.826494399871
 Cu  Cu 1.0  0.212897997678  0.407786885551  0.326153690118
 Cu  Cu 1.0  0.715060171849  0.411721164353  0.169753783595
 Cu  Cu 1.0  0.713177958093  0.089938763799  0.669746880293
 Cu  Cu 1.0  0.829481644931  0.209719903767  0.909096432011
 Cu  Cu 1.0  0.173272462833  0.709829480151  0.587269073112
 Cu  Cu 1.0  0.67413782296  0.713238210954  0.908163022748
 Cu  Cu 1.0  0.326329330243  0.208434878201  0.588864404536
 Cu  Cu 1.0  0.911255050565  0.825080725932  0.789721510672
 Cu  Cu 1.0  0.912607831841  0.669673115998  0.284971118078
 Cu  Cu 1.0  0.593406858769  0.326649702816  0.786673957835
 Cu  Cu 1.0  0.064374890651  0.12973134063  0.154420482429
 Cu  Cu 1.0  0.588829989146  0.171777351249  0.288265975344
 Cu  Cu 1.0  0.790160665638  0.90933945608  0.17119359283
 Cu  Cu 1.0  0.791654748968  0.587842462018  0.670411122522
 Cu  Cu 1.0  0.292260746765  0.588743272076  0.824597287235
 Cu  Cu 1.0  0.287269652673  0.907849049679  0.327975846012
 Cu  Cu 1.0  0.175255811078  0.787094989791  0.088257989469
 Cu  Cu 1.0  0.828623101793  0.286386353365  0.411482898055
 Cu  Cu 1.0  0.331605093968  0.288348058293  0.087077758596
 Cu  Cu 1.0  0.672207193074  0.788359057256  0.408526243439
 Cu  Cu 1.0  0.06719787429  0.366423210977  0.654218518468
 Cu  Cu 1.0  0.437666739748  0.868306853246  0.655571051859
 H  H 1.0  0.708366256107  0.181011826757  0.32493782128
 H  H 1.0  0.824807272553  0.171416084431  0.789787789725
 H  H 1.0  0.161593379827  0.802059119962  0.498935423588
 H  H 1.0  0.683209801772  0.672926014786  0.790713707189
 H  H 1.0  0.334822351188  0.29995140265  0.498573201422
 H  H 1.0  0.185020147837  0.826643546628  0.206251620535
 H  H 1.0  0.843721506202  0.19235038782  0.497343974113
 H  H 1.0  0.320535242729  0.327161571185  0.204974001592
 H  H 1.0  0.661811138513  0.694784455716  0.496716573917
 H  H 1.0  0.307737658961  1.002340020291  0.839496866525
 H  H 1.0  0.174112064739  0.288736085353  0.32067389803
 H  H 1.0  0.676272435514  0.293547426849  0.180835899004
 H  H 1.0  0.807293499407  0.001706429701  0.657517414656
 H  H 1.0  0.162444526586  0.692345215288  1.000853664386
 H  H 1.0  0.817179021767  0.32528123612  0.293719915827
 H  H 1.0  0.34520547096  0.193433308454  1.001662121669
 H  H 1.0  0.679027335319  0.826511053465  0.289689671663
 H  H 1.0  0.976656916602  0.715909889033  0.805878095946
 H  H 1.0  0.893269607637  0.569421267111  0.206790939085
 H  H 1.0  0.526449718325  0.217201663507  0.80251444709
 H  H 1.0  0.605103544264  0.072854237533  0.207388048139
 H  H 1.0  0.075630124291  0.708040316838  0.104009612101
 H  H 1.0  0.719613560812  0.30103256632  0.479274783186
 H  H 1.0  0.223356275705  0.303245263481  0.019232910887
 H  H 1.0  0.572685402135  0.707934059188  0.393773789382
 H  H 1.0  0.105119090042  0.071000790394  0.289052766082
 H  H 1.0  0.028587415202  0.214162825318  0.693374262433
 H  H 1.0  0.398591046566  0.571311684713  0.290141364673
 H  H 1.0  0.481283133167  0.718668714145  0.696582928718
 H  H 1.0  0.283905266845  0.802410355458  0.019852530906
 H  H 1.0  0.927753598091  0.206849887372  0.39521481129
 H  H 1.0  0.431001649431  0.208329691843  0.10631057043
 H  H 1.0  0.781686046986  0.803713051783  0.475134031393
 H  H 1.0  0.791296917133  0.819511825763  0.826253313049
 H  H 1.0  0.795462746572  0.682117861493  0.325596191265
 H  H 1.0  0.506462393768  0.33944870002  0.692250407943
 H  H 1.0  0.5020703804  0.157466144008  0.195656344559
 H  H 1.0  0.82893206524  0.79006031679  0.177323351224
 H  H 1.0  0.697438195234  0.500649272832  0.660160549956
 H  H 1.0  0.19966770543  0.499562142045  0.834878096633
 H  H 1.0  0.327068006472  0.789981810288  0.317138772905
 H  H 1.0  0.00317496078  0.159366723492  0.303529774047
 H  H 1.0  0.005232368166  0.336856856063  0.802126217329
 H  H 1.0  0.292734635313  0.675403513439  0.170673642138
 H  H 1.0  0.293319389894  0.815646987166  0.673417060615
 H  H 1.0  0.698604771787  -0.000729119656  0.161440175297
 H  H 1.0  0.828763226199  0.706584263289  0.678366352405
 H  H 1.0  0.329577469307  0.708105916712  0.816296804313
 H  H 1.0  0.19210671591  0.993595737315  0.341694316115
 H  H 1.0  0.97168412684  0.332784191958  0.179985195887
 H  H 1.0  0.117393636444  0.491088475589  0.82522466672
 H  H 1.0  0.524737463909  0.836826982456  0.175298762198
 H  H 1.0  0.38784590301  0.991838614771  0.826257151006
 H  H 1.0  0.328848091103  0.116274863678  0.992415840992
 H  H 1.0  0.329805813327  0.385520375709  0.491304036596
 H  H 1.0  0.683982189737  0.530615489478  0.331230008804
 H  H 1.0  0.67908050228  0.976069513055  0.833742645223
 H  H 1.0  -0.004313126099  0.325872793915  0.883620007583
 H  H 1.0  0.335662502785  0.67732104491  0.471220929389
 H  H 1.0  0.838987054451  0.679760872634  0.022641693072
 H  H 1.0  0.492296041247  0.324827284381  0.612555231337
 H  H 1.0  0.886753339603  0.989973726797  0.672214469685
 H  H 1.0  0.030205917392  0.832329039188  0.31628843421
 H  H 1.0  0.618960331247  0.492999105038  0.672636413912
 H  H 1.0  0.470834844125  0.332430144592  0.319734110449
 H  H 1.0  0.180436308052  0.96981273169  0.665743119397
 H  H 1.0  0.179504976592  0.52054720648  0.1611176288
 H  H 1.0  0.830549706591  0.383028554238  0.004547580353
 H  H 1.0  0.828543681285  0.117428184569  0.504036239186
 H  H 1.0  0.822614551111  0.025436437948  0.333625043461
 H  H 1.0  0.824849614432  0.471134031494  0.832495334751
 H  H 1.0  0.175283934757  0.611240757684  0.989818038018
 H  H 1.0  0.173342810362  0.879418686404  0.494334791143
 H  H 1.0  0.667167074189  0.179001512516  0.0263222159
 H  H 1.0  0.007881302758  0.826710334587  0.614438201316
 H  H 1.0  0.508478845501  0.827727600452  0.880609759647
 H  H 1.0  0.161844279696  0.17420609773  0.475591026488
 H  H 1.0  0.673186763853  0.886557607389  1.005590918155
 H  H 1.0  0.676126359179  0.617738368417  0.504885945435
 H  H 1.0  0.326847368732  0.474622148916  0.661413160022
 H  H 1.0  0.32003671167  0.025254834696  0.165638914176
 H  H 1.0  0.277205936126  0.170547968986  0.14196311988
 H  H 1.0  0.280889371692  0.329010283552  0.641133713008
 H  H 1.0  0.55755261229  0.642841350396  0.346097813379
 H  H 1.0  0.552195810464  0.865452290203  0.851338566281
 H  H 1.0  0.169151192594  0.641690778164  0.774282972879
 H  H 1.0  0.637882040192  0.853320606951  0.050028586966
 H  H 1.0  0.332964738905  0.141646928116  0.776265173085
 H  H 1.0  0.144413934047  0.274516333659  0.826296744115
 H  H 1.0  0.351680797883  0.551964394629  0.358309508839
 H  H 1.0  0.855591226007  0.551406436335  0.13216057003
 H  H 1.0  0.641574588018  0.275421640654  0.66922029998
 H  H 1.0  0.05477824049  0.856941019995  0.651296019777
 H  H 1.0  0.052988504358  0.631909128778  0.143596574238
 H  H 1.0  0.779555154309  0.326544010144  0.855605354418
 H  H 1.0  0.776390761573  0.171436069765  0.354590074224
 H  H 1.0  0.835029017296  0.140876374953  0.722247249932
 H  H 1.0  0.140915396066  0.848566848728  0.443919521177
 H  H 1.0  0.673852168487  0.642324011272  0.723079663308
 H  H 1.0  0.355534735356  0.346209367083  0.443598334873
 H  H 1.0  0.174746953936  0.856908638147  0.27390093234
 H  H 1.0  0.866398712351  0.145067405443  0.551038966452
 H  H 1.0  0.329273399021  0.35703134389  0.272976163804
 H  H 1.0  0.6412707614  0.648675473971  0.552187296914
 H  H 1.0  0.354132978238  0.947362659996  0.860702423442
 H  H 1.0  0.14349581304  0.221176392208  0.330670512792
 H  H 1.0  0.64608102005  0.225599094807  0.172614588231
 H  H 1.0  0.853167138225  0.946411339615  0.635956370585
 H  H 1.0  0.140165679459  0.645941408106  0.946374543245
 H  H 1.0  0.825619935399  0.355035895154  0.22560282912
 H  H 1.0  0.367039332947  0.1465157456  0.947339485118
 H  H 1.0  0.669509434256  0.856910058184  0.22198971026
 H  H 1.0  0.025607848846  0.661936543323  0.822276082048
 H  H 1.0  0.879829656819  0.503647983408  0.172336340797
 H  H 1.0  0.478306636331  0.162916886395  0.820301499819
 H  H 1.0  0.616902178494  0.007505676047  0.171535729456
 H  H 1.0  0.010071874677  0.672455129795  0.115364179814
 H  H 1.0  0.665639986924  0.318997802628  0.527668870325
 H  H 1.0  0.169461728396  0.319781422526  0.970246800988
 H  H 1.0  0.50758865076  0.672012775717  0.380826705568
 H  H 1.0  0.117168429018  1.0053702269  0.324253354901
 H  H 1.0  0.979939299854  0.160210544258  0.675985160296
 H  H 1.0  0.385358233064  0.505868806399  0.325236645869
 H  H 1.0  0.530328804959  0.665040110235  0.679268983732
 H  H 1.0  0.337882701838  0.820267486207  0.971355965356
 H  H 1.0  -0.006791447329  0.171155852002  0.383582300119
 H  H 1.0  0.496335240424  0.173151143019  0.120022658378
 H  H 1.0  0.835844538686  0.820588787516  0.523746081148
 H  H 1.0  0.723571782477  0.830900396586  0.855966282127
 H  H 1.0  0.727674580107  0.673746367238  0.356069699548
 H  H 1.0  0.452151158735  0.361740648374  0.645526022036
 H  H 1.0  0.447442643356  0.135971207149  0.148961444786
 H  H 1.0  0.859738374369  0.722520314032  0.167740579542
 H  H 1.0  0.650587768372  0.445951109606  0.639412226339
 H  H 1.0  0.153449287331  0.444758265476  0.856445505996
 H  H 1.0  0.357829649091  0.722350736296  0.325892820732
 H  H 1.0  0.947951454922  0.13808999793  0.349564919429
 H  H 1.0  0.950374899291  0.358394100856  0.848416327969
 H  H 1.0  0.22513110639  0.664583245577  0.140470837914
 H  H 1.0  0.225361533254  0.824909906133  0.643558560313
 H  H 1.0  0.652494134053  0.054543736016  0.140779828822
 H  H 1.0  0.858298611645  0.774601687805  0.66845608603
 H  H 1.0  0.35950301962  0.776070342895  0.825565818947
 H  H 1.0  0.145401880737  0.048178830314  0.363732769135
 H  H 1.0  0.985928780794  0.209783797791  0.093508986925
 H  H 1.0  0.138210624134  0.478602566674  0.676017470571
 H  H 1.0  0.514441142704  0.712375691855  0.090357503862
 H  H 1.0  0.362924330014  0.978553895766  0.677750613054
 H  H 1.0  0.179657917206  0.136526246295  0.979130112273
 H  H 1.0  0.180982135372  0.361710250657  0.47948684713
 H  H 1.0  0.598920484603  0.51723226506  0.207166549035
 H  H 1.0  0.595094940935  0.986086700163  0.708601268277
 H  H 1.0  0.982584484196  0.176630144533  0.863543649864
 H  H 1.0  0.211574996095  0.592031439237  0.483053325684
 H  H 1.0  0.713405609458  0.596573593812  0.011736580149
 H  H 1.0  0.480369602152  0.175635190186  0.633373997184
 H  H 1.0  0.866200256434  0.978453216464  0.821511780898
 H  H 1.0  0.017776694976  0.707997785501  0.401118748347
 H  H 1.0  0.639202634638  0.480189663063  0.821898325326
 H  H 1.0  0.48325598919  0.208505951699  0.405184203578
 H  H 1.0  0.095805111396  0.982710615067  0.790185607073
 H  H 1.0  0.095062805111  0.510507904957  0.285937249339
 H  H 1.0  0.681249568284  0.362989407328  0.017529621905
 H  H 1.0  0.679228604011  0.136621610491  0.517485121444
 H  H 1.0  0.908183201881  0.012885934098  0.209811200007
 H  H 1.0  0.909691483997  0.482673022287  0.708068857926
 H  H 1.0  0.32426608435  0.633838658035  0.978049248537
 H  H 1.0  0.322655547563  0.860122760961  0.48077010105
 H  H 1.0  0.790336363626  0.092607347865  0.013185849738
 H  H 1.0  0.021263871696  0.677451773145  0.634316775158
 H  H 1.0  0.522409503012  0.678632817863  0.860191462399
 H  H 1.0  0.286539674643  0.089712302767  0.486646738781
 H  H 1.0  0.821841632743  0.862614417918  0.018779926292
 H  H 1.0  0.825873727899  0.634102265276  0.517287458186
 H  H 1.0  0.411333240709  0.485423016745  0.786144928028
 H  H 1.0  0.404507700239  0.013570454223  0.290299921376
 H  H 1.0  0.152398849159  0.154037062022  0.058467142059
 H  H 1.0  0.155038614937  0.343818165954  0.558883733882
 H  H 1.0  0.538273440472  0.573625413026  0.213253448441
 H  H 1.0  0.534387394964  0.929497232499  0.71569588941
 H  H 1.0  0.929150473972  0.215648370414  0.033525531522
 H  H 1.0  0.154456591954  0.558457397585  0.649054037445
 H  H 1.0  0.571568076757  0.719030968087  0.030710907248
 H  H 1.0  0.345603006221  0.058071437936  0.651039918108
 H  H 1.0  0.061665479326  0.149599643562  0.845740182527
 H  H 1.0  0.218138263846  0.531861162921  0.425902990433
 H  H 1.0  0.719841544746  0.535626898303  0.067653347134
 H  H 1.0  0.560624370623  0.149297749943  0.650144006289
 H  H 1.0  0.035600403674  0.925611275026  0.784434407196
 H  H 1.0  0.034685344932  0.567126546407  0.278822337264
 H  H 1.0  0.654322376774  0.345093565906  0.938124720792
 H  H 1.0  0.651841169827  0.154191084866  0.43836402176
 H  H 1.0  0.849141729823  0.05824264256  0.847922872229
 H  H 1.0  0.073551289539  0.714566511707  0.462005807043
 H  H 1.0  0.656073467513  0.560328385285  0.84875231712
 H  H 1.0  0.425937046894  0.214309999886  0.464656633699
 H  H 1.0  0.156644916425  0.93901890905  0.148350080002
 H  H 1.0  0.932265174643  0.279823302457  0.533004880575
 H  H 1.0  0.350212814992  0.439815056061  0.148330665306
 H  H 1.0  0.573299240121  0.782170251589  0.532807238331
 H  H 1.0  0.219907439164  0.965844416029  0.927437435709
 H  H 1.0  0.06123927122  0.346963239847  0.346216421955
 H  H 1.0  0.563489290928  0.350445712562  0.152103740036
 H  H 1.0  0.719167710019  0.966631885962  0.569295872012
 H  H 1.0  0.073193241191  0.779759496704  0.966618364514
 H  H 1.0  0.846270414852  0.43828234357  0.349993560767
 H  H 1.0  0.432707381036  0.281456390286  0.96468198572
 H  H 1.0  0.653780594594  0.939696449827  0.347418414575
 H  H 1.0  0.015454862058  0.78626050921  0.907441851108
 H  H 1.0  0.864026274544  0.517781821238  0.321977211189
 H  H 1.0  0.489179928978  0.287877468395  0.904435616489
 H  H 1.0  0.636749922322  0.019081920529  0.320948648429
 H  H 1.0  0.021906604571  0.821886088146  0.134809203513
 H  H 1.0  0.790640963871  0.402931404502  0.515900111159
 H  H 1.0  0.293672311884  0.405041119034  0.980992625747
 H  H 1.0  0.518954640677  0.821706285195  0.362796966033
 H  H 1.0  0.138706946513  0.018837362745  0.175270822943
 H  H 1.0  -0.010007398562  0.285672646512  0.592543812411
 H  H 1.0  0.367753976903  0.51895276701  0.17569438681
 H  H 1.0  0.51697785036  0.788801135857  0.593724687781
 H  H 1.0  0.213334765245  0.904819431992  0.983746527525
 H  H 1.0  0.981350435679  0.320518314683  0.363621310837
 H  H 1.0  0.484085517246  0.323140484586  0.134422690733
 H  H 1.0  0.711919165827  0.906203948914  0.512564178624
 H  H 1.0  0.84859972209  0.844769167373  0.939649166669
 H  H 1.0  0.852905933215  0.651764408803  0.437666671681
 H  H 1.0  0.471104052049  0.428082552741  0.779846232496
 H  H 1.0  0.465172401733  0.070023082568  0.283745949244
 H  H 1.0  0.941771755298  0.848401426546  0.151907749659
 H  H 1.0  0.78437179952  0.463647222134  0.571576590799
 H  H 1.0  0.287066088141  0.464700148808  0.923925460002
 H  H 1.0  0.43931081844  0.848059052485  0.345633201232
 H  H 1.0  0.968518113168  0.070111130606  0.216286527026
 H  H 1.0  0.969921382923  0.425577241997  0.714574162501
 H  H 1.0  0.350557707546  0.651256843945  0.057315025286
 H  H 1.0  0.350075997601  0.842802514253  0.560187841786
 H  H 1.0  0.784373529664  0.033025594826  0.070422333887
 H  H 1.0  0.942279280792  0.65006498677  0.651865807229
 H  H 1.0  0.442856911359  0.651255508334  0.843062156406
 H  H 1.0  0.279869307897  0.02934669903  0.429935446893
 H  H 1.0  0.655532425726  0.841767668842  0.116669419079
 H  H 1.0  0.433908855058  0.058091002132  0.808897448193
 H  H 1.0  0.339351441629  0.186235477453  0.106359261497
 H  H 1.0  0.314417405436  0.43054041216  0.557236282855
 H  H 1.0  0.64223017653  0.963420560692  0.89089688769
 H  H 1.0  0.934551638338  0.056049253015  0.688394399485
 H  H 1.0  0.159501979188  0.839951043564  0.377932954581
 H  H 1.0  0.108298041736  0.335844563776  0.810143695357
 H  H 1.0  0.341481850368  0.61805387614  0.340718136854
 H  H 1.0  0.895937896039  0.642625290518  0.035440139255
 H  H 1.0  0.560390664682  0.309555778027  0.567243582597
 H  H 1.0  0.841206886264  0.337460449395  0.120636656432
 H  H 1.0  0.069840620609  0.557431176551  0.809405592111
 H  H 1.0  0.881646462354  0.155829534485  0.338006351183
 H  H 1.0  0.862216579057  0.458664089903  0.888973814676
 H  H 1.0  0.163799303761  0.681812105891  0.103896559708
 H  H 1.0  0.190753714316  0.926210584568  0.560717935632
 H  H 1.0  0.66304349065  0.120731542461  0.15746652869
 H  H 1.0  0.442816401941  0.809426112208  0.92701224323
 H  H 1.0  0.572510067646  0.559822102811  0.689718016374
 H  H 1.0  0.33992389108  0.339839983842  0.377155679777
 H  H 1.0  0.666065650824  0.689934497674  0.392305766029
 H  H 1.0  0.941361716692  0.809157015883  0.567507604414
 H  H 1.0  0.157879406422  0.115203597479  0.345412958281
 H  H 1.0  0.623689760181  0.660375987149  0.338712220904
 H  H 1.0  0.958161376874  0.389386923037  0.142775364581
 H  H 1.0  0.187521096172  0.605318639316  0.835333323373
 H  H 1.0  0.063621636109  0.309387949424  0.928979479595
 H  H 1.0  0.392387259759  0.640352743347  0.458093818477
 H  H 1.0  0.844190614771  0.617817061083  0.151923279019
 H  H 1.0  0.604301915274  0.336192764456  0.686291697504
 H  H 1.0  0.14284514369  0.956756914004  0.609370862556
 H  H 1.0  0.11988033712  0.650603470765  0.155408723087
 H  H 1.0  0.813859929647  0.428782380227  0.937601953074
 H  H 1.0  0.838405172513  0.187391483109  0.389741859696
 H  H 1.0  0.690382048488  0.605963922487  0.661602236924
 H  H 1.0  0.458997487318  0.38817562341  0.358365593476
 H  H 1.0  0.310175683527  0.068847401888  0.059674653158
 H  H 1.0  0.341627986068  0.313034699776  0.604916196202
 H  H 1.0  0.618749734617  0.846345025213  0.839875607665
 H  H 1.0  0.189880190718  0.893187009028  0.335652155192
 H  H 1.0  0.96547610377  0.103592914812  0.639597317375
 H  H 1.0  0.394792003979  0.857424819458  0.95846285699
 H  H 1.0  0.611090666895  0.163820455005  0.188806601352
 H  H 1.0  0.465146117956  0.106043281113  0.857102454051
 H  H 1.0  0.686808225532  0.893127017759  0.160592384428
 H  H 1.0  0.107308536367  0.159888807862  0.313754291373
 H  H 1.0  0.893122174788  0.857454126596  0.536859874349
 H  H 1.0  0.348323698739  0.157483470171  0.880925944759
 H  H 1.0  0.569578738214  0.941348141619  0.187976730213
 H  H 1.0  0.661905830813  0.815086078245  0.891906885849
 H  H 1.0  0.385616685959  0.344017251028  0.656417466801
 H  H 1.0  0.357341299028  0.037712367414  0.10870878821
 H  H 1.0  0.07170650984  0.937929630419  0.306564839954
 H  H 1.0  0.848804091113  0.156190925701  0.617612704397
 H  H 1.0  0.896033441698  0.660682075043  0.184003169634
 H  H 1.0  0.657621753449  0.379299792589  0.657187541241
 H  H 1.0  0.113032369744  0.357395062203  0.958099064309
 H  H 1.0  0.440736782453  0.688641973306  0.427652660801
 H  H 1.0  0.156950254713  0.656842168539  0.879572319626
 H  H 1.0  0.927287738971  0.437773587176  0.190739471533
 H  H 1.0  0.120993397299  0.839522046487  0.660761224234
 H  H 1.0  0.142800993755  0.533668222747  0.103870539579
 H  H 1.0  0.840960611217  0.310572481233  0.89158635655
 H  H 1.0  0.810864821729  0.070378339165  0.438380749755
 H  H 1.0  0.342799549776  0.881056327423  0.84183896261
 H  H 1.0  0.562389181264  0.190663512063  0.071649750163
 H  H 1.0  0.430982461558  0.437797154167  0.309945318979
 H  H 1.0  0.659708470292  0.658454945772  0.618538588827
 H  H 1.0  0.645418668197  0.541900121007  0.38725307539
 H  H 1.0  0.058200122453  0.187323160694  0.430593834167
 H  H 1.0  0.841742442757  0.879781369204  0.653999861185
 H  H 1.0  0.693066544714  0.571231793193  0.436884164498
 H  H 1.0  0.03973829433  0.605032382234  0.858654067952
 H  H 1.0  0.809989617287  0.389782213788  0.163293347345
 H  H 1.0  0.943834414842  0.690562109741  0.067241548676
 H  H 1.0  0.609675048293  0.357881814718  0.538415477263
 H  H 1.0  0.16170999716  0.378521047601  0.839561608855
 H  H 1.0  0.393837227893  0.661088977372  0.30991331201
 H  H 1.0  0.859288249534  0.039239229294  0.390600727361
 H  H 1.0  0.884071743736  0.340813932177  0.838946499308
 H  H 1.0  0.191653244085  0.564485116337  0.056292031849
 H  H 1.0  0.163591234737  0.80861030179  0.608178189455
 H  H 1.0  0.311553831334  0.393445442298  0.334057109521
 H  H 1.0  0.542137708041  0.608342071845  0.641537038814
 H  H 1.0  0.690482708245  0.932494714432  0.938994796924
 H  H 1.0  0.363543208734  0.46104525547  0.604677471632
 H  H 1.0  0.381348952843  0.154878641845  0.1592749498
 H  H 1.0  0.817432471678  0.104606274306  0.661239910898
 H  H 1.0  0.041505476361  0.888766037046  0.35419137719
 H  H 1.0  0.610407357142  0.142357124464  0.040737514514
 H  H 1.0  0.394755181166  0.838243493261  0.810045854285
 H  H 1.0  0.538737592375  0.893933869461  0.139000997276
 H  H 1.0  0.316751801755  0.105539536387  0.83786591137
 H  H 1.0  0.89381426777  0.836467130546  0.685036513921
 H  H 1.0  0.104748659142  0.137696404764  0.46172404836
 H  H 1.0  0.858251345651  0.347328960584  0.054595579053
 H  H 1.0  0.021759457489  0.279808095388  0.19637201649
 H  H 1.0  0.106770298988  0.425300073016  0.789865943393
 H  H 1.0  0.476294382962  0.782547266275  0.192284908707
 H  H 1.0  0.398175222459  0.926049178397  0.790854745868
 H  H 1.0  0.293749128795  0.104519953815  0.926679914427
 H  H 1.0  0.293675996852  0.396895244256  0.426075337251
 H  H 1.0  0.701168640945  0.481155512338  0.277980677116
 H  H 1.0  0.697021471977  0.023725301676  0.779053590375
 H  H 1.0  0.930235182598  0.290564274944  0.896302434588
 H  H 1.0  0.281977702884  0.694123478059  0.520364920967
 H  H 1.0  0.784487385848  0.698412973384  0.975043926134
 H  H 1.0  0.426942052539  0.289116872615  0.60079218702
 H  H 1.0  0.897665147373  0.924465251327  0.707992107257
 H  H 1.0  0.981646014151  0.77839161962  0.298600953193
 H  H 1.0  0.607080204674  0.427386993851  0.708007255885
 H  H 1.0  0.520807392281  0.279356917946  0.303509568338
 H  H 1.0  0.197616588548  0.019294539323  0.719009713174
 H  H 1.0  0.197090729069  0.472691587925  0.215718185025
 H  H 1.0  0.795131918385  0.395771565933  0.069964809372
 H  H 1.0  0.793551279528  0.105249297867  0.569783469107
 H  H 1.0  0.80582416089  0.976084701979  0.280086527755
 H  H 1.0  0.807781809398  0.520069211706  0.778692893336
 H  H 1.0  0.21113965648  0.600601991437  0.92431923774
 H  H 1.0  0.208346722949  0.891808646375  0.428629136917
 H  H 1.0  0.720227249396  0.195014683054  0.976215766441
 H  H 1.0  0.073571625643  0.791611939481  0.602338153046
 H  H 1.0  0.574305768758  0.792863249734  0.892625650801
 H  H 1.0  0.216133671419  0.191831047292  0.523821261858
 H  H 1.0  0.708609652022  0.897413707143  0.071296298984
 H  H 1.0  0.71144150836  0.60407569935  0.570150270065
 H  H 1.0  0.309605155232  0.523208311577  0.715486814069
 H  H 1.0  0.302363073109  0.976805505411  0.2196806441
 H  H 1.0  0.209322354498  0.180582664398  0.171766669654
 H  H 1.0  0.213456841846  0.317984209929  0.67157325794
 H  H 1.0  0.502273955586  0.663022913331  0.299813033362
 H  H 1.0  0.497730956288  0.842958728426  0.804775132461
 H  H 1.0  0.838203317073  0.301235655246  -0.000895646886
 H  H 1.0  0.179104838011  0.671895511978  0.706550233602
 H  H 1.0  0.660139572329  0.806771683704  0.995598805435
 H  H 1.0  0.321551533716  0.171577062247  0.708633237903
 H  H 1.0  0.174265531452  0.206627837895  0.816575020413
 H  H 1.0  0.305508386834  0.496938142505  0.336871647458
 H  H 1.0  0.808310662871  0.497214044727  0.153968496206
 H  H 1.0  0.672555766728  0.207986681497  0.678594034949
 H  H 1.0  1.000030348863  0.836003045064  0.697882842404
 H  H 1.0  -0.00161344323  0.654196587567  0.190123150042
 H  H 1.0  0.711768586277  0.316801216459  0.825490312982
 N  N 1.0  0.920679972405  0.326159559311  0.109754440572
 N  N 1.0  0.613441919632  0.581129541481  0.324605376431
 N  N 1.0  0.608433986656  0.925724102085  0.828061582698
 N  N 1.0  0.063139114393  0.284050009597  0.852143009931
 N  N 1.0  0.329450427482  0.60723829511  0.420072336021
 N  N 1.0  0.832807046379  0.60860064072  0.072396008159
 N  N 1.0  0.560129426904  0.283814212852  0.643950400673
 N  N 1.0  0.857705749692  0.058642402278  0.713540512537
 N  N 1.0  0.080136584233  0.826313449891  0.387349046793
 N  N 1.0  0.649475534222  0.560703948549  0.714240540359
 N  N 1.0  0.418969742235  0.325536410147  0.389263704755
 N  N 1.0  0.110259100291  0.918907220836  0.672676354132
 N  N 1.0  0.109024307292  0.571234356648  0.166736367509
 N  N 1.0  0.788786874332  0.351945013089  0.93701691499
 N  N 1.0  0.786263794455  0.147260161157  0.436312940354
 N  N 1.0  0.892766146553  0.076381665291  0.327351377054
 N  N 1.0  0.894978689522  0.420094931438  0.82621584237
 N  N 1.0  0.21633156771  0.641420356695  0.058296796223
 N  N 1.0  0.215610054612  0.84931831904  0.561950764556
 N  N 1.0  0.673785084429  0.109269008993  0.078046056347
 N  N 1.0  0.940066390706  0.784491881784  0.644424781843
 N  N 1.0  0.441144680386  0.785686196398  0.849897177935
 N  N 1.0  0.167905692802  0.103792456383  0.424925125169
 N  N 1.0  0.714447098421  0.855295082186  0.937754832249
 N  N 1.0  0.718264714345  0.648041910211  0.437270919409
 N  N 1.0  0.396897694511  0.423421629933  0.66768739343
 N  N 1.0  0.390821530022  0.075515566676  0.171690900905
 N  N 1.0  0.148974065781  0.938136444408  0.282781436055
 N  N 1.0  0.928189932039  0.167022770628  0.606364148536
 N  N 1.0  0.354729408897  0.438341633497  0.282902657574
 N  N 1.0  0.580322194083  0.671052435216  0.608359683378
 N  N 1.0  0.331662806475  0.891124261107  0.921354560177
 N  N 1.0  0.061440730951  0.212537253627  0.353977887908
 N  N 1.0  0.564436075348  0.215775415071  0.148395455695
 N  N 1.0  0.83021647916  0.890862820734  0.574696244959
 N  N 1.0  0.07769994922  0.668064372483  0.891730415469
 N  N 1.0  0.850426123863  0.436375046412  0.215361183748
 N  N 1.0  0.427765805296  0.169023985819  0.89093843404
 N  N 1.0  0.646356446598  0.939033075242  0.212998890547
 N  N 1.0  0.941745637614  0.713926267454  0.144541667986
 N  N 1.0  0.672114143004  0.389755936475  0.577982368156
 N  N 1.0  0.175538105819  0.389627822943  0.918628292085
 N  N 1.0  0.439445111648  0.713519282822  0.350765580941
 N  N 1.0  0.146395995822  0.559541930002  0.783451274439
 N  N 1.0  0.576150750593  0.830898650701  0.10530563701
 N  N 1.0  0.356648320692  0.059694799729  0.785150326225
 N  N 1.0  0.286812557038  0.146260813861  0.060295378258
 N  N 1.0  0.289221559686  0.353755463655  0.559329423827
 O  O 1.0  0.608019317471  0.149267508188  0.377180911348
 O  O 1.0  0.853931250674  0.119926269418  0.891166210952
 O  O 1.0  0.114588794951  0.694603340681  0.519185612359
 O  O 1.0  0.651248583991  0.622529421906  0.891712297335
 O  O 1.0  0.383766340356  0.193421286457  0.52054629709
 O  O 1.0  0.152563989994  0.877046965548  0.105362294631
 O  O 1.0  0.888807600154  0.300593705993  0.477720145123
 O  O 1.0  0.354170372326  0.378425837935  0.104658239045
 O  O 1.0  0.614692863705  0.802199186246  0.476146094126
 O  O 1.0  0.199770248983  0.02216595673  0.88555637132
 O  O 1.0  0.122982787424  0.390155493545  0.350544714974
 O  O 1.0  0.625089702484  0.393908611536  0.14744417723
 O  O 1.0  0.699388548899  0.02245078755  0.611340567992
 O  O 1.0  0.116644947621  0.800578255617  0.020962169826
 O  O 1.0  0.850750058759  0.376706401211  0.3938498034
 O  O 1.0  0.39050520812  0.301942844079  0.020601647389
 O  O 1.0  0.649086891922  0.878271996858  0.390856416303
 O  O 1.0  0.970664203749  0.820999713219  0.861059700389
 O  O 1.0  0.904368389592  0.583402418213  0.321409313301
 O  O 1.0  0.532779705788  0.322508903585  0.857449293543
 O  O 1.0  0.598151411798  0.085178146295  0.322969781738
 O  O 1.0  0.088489046496  0.822862825875  0.095473425737
 O  O 1.0  0.824873138923  0.355878573967  0.472095521492
 O  O 1.0  0.328145687989  0.358987250411  0.026127851265
 O  O 1.0  0.585382314789  0.82317287796  0.401822699933
 O  O 1.0  0.098864420974  0.085138928965  0.174125633462
 O  O 1.0  0.034414380977  0.319841172197  0.639093658831
 O  O 1.0  0.406263095016  0.585188247356  0.174653606279
 O  O 1.0  0.472473502535  0.823118344681  0.640672354633
 O  O 1.0  0.178970625255  0.857651207431  0.027386512831
 O  O 1.0  0.914887821459  0.321972768255  0.402550137086
 O  O 1.0  0.418084678398  0.323569700977  0.095425348408
 O  O 1.0  0.676836186809  0.859234773696  0.468763202663
 O  O 1.0  0.892316943812  0.848862015127  0.878555746047
 O  O 1.0  0.895964404815  0.647515782902  0.375653987897
 O  O 1.0  0.526116553  0.385015646037  0.800581219262
 O  O 1.0  0.52237120923  0.11149339583  0.303426614968
 O  O 1.0  0.880143843632  0.891455584517  0.147371760699
 O  O 1.0  0.80505353656  0.52036348907  0.612790885518
 O  O 1.0  0.307151677974  0.520815061033  0.881943912093
 O  O 1.0  0.377368228683  0.890778365196  0.350583372199
 O  O 1.0  0.02416295913  0.112942304383  0.195930929733
 O  O 1.0  0.025978654061  0.383278329579  0.694399003001
 O  O 1.0  0.394236833383  0.647387817406  0.118398306968
 O  O 1.0  0.393826279519  0.847425405264  0.621403628457
 O  O 1.0  0.805172361859  0.977348451211  0.11282803571
 O  O 1.0  0.880899688342  0.606064989756  0.647346915443
 O  O 1.0  0.381720016744  0.607560873002  0.847733276461
 O  O 1.0  0.300468233653  0.974117487968  0.386994883304
 O  O 1.0  0.06074070603  0.217222070354  0.185614109829
 O  O 1.0  0.114629754855  0.377364942363  0.732727203355
 O  O 1.0  0.439402625025  0.718597004385  0.18243741605
 O  O 1.0  0.38909428262  0.877945007613  0.734329731774
 O  O 1.0  0.23617412184  0.111131503407  0.878418837078
 O  O 1.0  0.236231331211  0.387193017175  0.378296195335
 O  O 1.0  0.690788100072  0.442034554789  0.215419112445
 O  O 1.0  0.687564811303  0.060677869831  0.71526794884
 O  O 1.0  0.881972526949  0.232972295972  0.888775741045
 O  O 1.0  0.218927858967  0.683997409001  0.558373710517
 O  O 1.0  0.72046548642  0.689105494226  0.937547551591
 O  O 1.0  0.378997037764  0.23179755302  0.609031310172
 O  O 1.0  0.890528884737  0.876986173732  0.765685561969
 O  O 1.0  0.943034950947  0.715335416055  0.30899312601
 O  O 1.0  0.614707724475  0.379347365815  0.76477853926
 O  O 1.0  0.559287336212  0.216994503657  0.313972652861
 O  O 1.0  0.187667321698  0.057956437412  0.781550862481
 O  O 1.0  0.187537853092  0.435852397305  0.279641172097
 O  O 1.0  0.737835042078  0.388893820776  0.118111294361
 O  O 1.0  0.736179708379  0.111386997757  0.617939324551
 O  O 1.0  0.816173714034  0.937750106131  0.217080631883
 O  O 1.0  0.817628662996  0.557862258902  0.715573914627
 O  O 1.0  0.268781061737  0.609300328379  0.876679600802
 O  O 1.0  0.265488154791  0.885323660215  0.380332230282
 O  O 1.0  0.783083863777  0.184054167859  0.937546988806
 O  O 1.0  0.121830052979  0.73401790747  0.609053790634
 O  O 1.0  0.622677368284  0.73595849332  0.885622393536
 O  O 1.0  0.279919139314  0.182374628149  0.560920027323
 O  O 1.0  0.765814446196  0.888748250452  0.119488576375
 O  O 1.0  0.769022868504  0.609368236314  0.618077104115
 O  O 1.0  0.319126563155  0.560340626812  0.779166018615
 O  O 1.0  0.312240854434  0.938717143413  0.282810176557
 O  O 1.0  0.137748693323  0.178566626199  0.174946527362
 O  O 1.0  0.141737499429  0.319379979336  0.675406992469
 O  O 1.0  0.461849043643  0.661521674421  0.239558325905
 O  O 1.0  0.46021274898  0.839933649835  0.743161446541
 O  O 1.0  0.840216297314  0.241345683584  0.958277481038
 O  O 1.0  0.178623316131  0.675038548994  0.634871001051
 O  O 1.0  0.661378766369  0.74518499391  0.956702599643
 O  O 1.0  0.321280038719  0.174504503226  0.636899464634
 O  O 1.0  0.177830290412  0.135247104221  0.819690742236
 O  O 1.0  0.244821438497  0.456822536554  0.337003548321
 O  O 1.0  0.7465856132  0.460104652657  0.156264347816
 O  O 1.0  0.677356525341  0.136838085111  0.675322417992
 O  O 1.0  0.960497817852  0.836486096906  0.758614833707
 O  O 1.0  0.96007140467  0.656244135572  0.251799156921
 O  O 1.0  0.640492446171  0.320064562495  0.821570791092
 O  O 1.0  0.636780407922  0.178729166294  0.322013416239
 O  O 1.0  0.824766033986  0.17477653083  0.861455359298
 O  O 1.0  0.161498598075  0.74127210262  0.53825237036
 O  O 1.0  0.68045302294  0.677184529748  0.861696996529
 O  O 1.0  0.336767936077  0.239874641387  0.539723974045
 O  O 1.0  0.182283773775  0.822504802262  0.135011594906
 O  O 1.0  0.841668111856  0.253854632826  0.459520569135
 O  O 1.0  0.324780925288  0.323432111272  0.133842356544
 O  O 1.0  0.661369771496  0.755473496832  0.456746362977
 O  O 1.0  0.246443766912  0.041047314188  0.8386076899
 O  O 1.0  0.17772138537  0.360432393857  0.321272213676
 O  O 1.0  0.6800661491  0.364762481309  0.176920043951
 O  O 1.0  0.746175820079  0.041550260842  0.658113723751
 O  O 1.0  0.162985758677  0.753613377321  0.040631190956
 O  O 1.0  0.82145351521  0.321656123824  0.364686811909
 O  O 1.0  0.343650859612  0.255223937589  0.039607179306
 O  O 1.0  0.677478849943  0.82301657527  0.361192412329
 O  O 1.0  0.939522238186  0.77934418251  0.815959011012
 O  O 1.0  0.889040351292  0.617778580096  0.263776668257
 O  O 1.0  0.563880029874  0.281035674864  0.812148413828
 O  O 1.0  0.611026526005  0.120188150873  0.265145184267
 O  O 1.0  0.123193180154  0.765446830481  0.110846328037
 O  O 1.0  0.782959745281  0.310819021611  0.441185682224
 O  O 1.0  0.286407243419  0.313815051664  0.057080383761
 O  O 1.0  0.620100424809  0.765540725195  0.387286004052
 O  O 1.0  0.112869075301  0.119302864036  0.232233328531
 O  O 1.0  0.065509707182  0.278229767652  0.684271625719
 O  O 1.0  0.392307700115  0.61960245231  0.232592199619
 O  O 1.0  0.442377772709  0.781171619601  0.686180834164
 O  O 1.0  0.22055855763  0.812033206805  0.057841206877
 O  O 1.0  0.880292880094  0.264051809936  0.388837741735
 O  O 1.0  0.383460036328  0.265784084451  0.109527385626
 O  O 1.0  0.718261434164  0.813994455289  0.43749705717
 O  O 1.0  0.863075647624  0.81969104324  0.823444006599
 O  O 1.0  0.866363844795  0.677121269533  0.321050127557
 O  O 1.0  0.545370794472  0.338430029591  0.753676353636
 O  O 1.0  0.539961287157  0.159257294409  0.257035183837
 O  O 1.0  0.824925159864  0.861567712554  0.17559041653
 O  O 1.0  0.758585590805  0.539964260114  0.65961020949
 O  O 1.0  0.260385814667  0.539805565598  0.835140993146
 O  O 1.0  0.322715111541  0.861218137424  0.320994753321
 O  O 1.0  0.043056792619  0.159462698098  0.243016839087
 O  O 1.0  0.044858614752  0.336551656353  0.741302656317
 O  O 1.0  0.364476813232  0.675493294022  0.173742033445
 O  O 1.0  0.364580082765  0.81921723802  0.676940202967
 O  O 1.0  0.758715696991  0.958556316998  0.160041823778
 O  O 1.0  0.825981803971  0.635188654834  0.676923582483
 O  O 1.0  0.326228657454  0.636762245009  0.819313156991
 O  O 1.0  0.253556575587  0.95506854814  0.340344765735
 O  O 1.0  0.030778261307  0.175704269247  0.139579142773
 O  O 1.0  0.100766120376  0.411403384822  0.674559305164
 O  O 1.0  0.471000331555  0.677275996605  0.137323726495
 O  O 1.0  0.401992040442  0.911780714159  0.675809710915
 O  O 1.0  0.178540000969  0.097077103494  0.913256955153
 O  O 1.0  0.178570917786  0.4013004008  0.413104194311
 O  O 1.0  0.64547641033  0.47226458607  0.173346388
 O  O 1.0  0.642493865036  0.029374071636  0.673659250474
 O  O 1.0  0.916581090844  0.175220380754  0.902926490716
 O  O 1.0  0.177104169349  0.638793676553  0.527630758043
 O  O 1.0  0.67885459331  0.644037399658  0.968839159776
 O  O 1.0  0.413318368093  0.173773358979  0.595294895997
 O  O 1.0  0.904181552842  0.911765559138  0.823466419998
 O  O 1.0  0.973907861077  0.673551987157  0.354179660966
 O  O 1.0  0.60053834948  0.41327153993  0.822944697755
 O  O 1.0  0.529131936426  0.174765992656  0.359218874457
 O  O 1.0  0.142489763611  0.027842075516  0.823909779601
 O  O 1.0  0.142341728137  0.467194720913  0.321054261582
 O  O 1.0  0.680055553035  0.402890143083  0.083439592597
 O  O 1.0  0.678451682771  0.0971597762  0.583277583373
 O  O 1.0  0.861108266664  0.968918479145  0.175253376167
 O  O 1.0  0.863037187497  0.527414224222  0.673780954553
 O  O 1.0  0.326557811638  0.59552388988  0.911419996321
 O  O 1.0  0.3232967341  0.899808693574  0.41471851894
 O  O 1.0  0.824806415605  0.138978498803  0.968669963715
 O  O 1.0  0.086999735272  0.676286496457  0.595119287502
 O  O 1.0  0.588391187975  0.678060496708  0.90018627717
 O  O 1.0  0.321444379432  0.137221440267  0.529623136709
 O  O 1.0  0.823957430264  0.901616022435  0.084973770596
 O  O 1.0  0.826624959958  0.594789434227  0.583388358474
 O  O 1.0  0.364439426728  0.529360791731  0.820716658539
 O  O 1.0  0.357658375499  0.968986940773  0.324693830455
 O  O 1.0  0.108799821561  0.149142673767  0.119857149522
 O  O 1.0  0.111847687763  0.34743789934  0.620092065289
 O  O 1.0  0.481153877532  0.61464946014  0.192985861542
 O  O 1.0  0.477861215452  0.88696518937  0.696116782836
 O  O 1.0  0.887126389112  0.194753055431  0.977495672372
 O  O 1.0  0.149261339596  0.620039724819  0.605612075426
 O  O 1.0  0.614599836891  0.698417756532  0.975766256215
 O  O 1.0  0.350021937875  0.11930224715  0.607458472462
 O  O 1.0  0.123256507847  0.106292417475  0.850123897017
 O  O 1.0  0.19806897803  0.475925987375  0.383774109411
 O  O 1.0  0.699735350208  0.478909722174  0.10941840338
 O  O 1.0  0.622886013227  0.106720510017  0.645926962987
 O  O 1.0  0.979381675591  0.883583821777  0.805132417212
 O  O 1.0  0.979164671709  0.609812065978  0.298924535888
 O  O 1.0  0.610925314821  0.348971787437  0.876638985322

