data_DUT-48_P1
_audit_creation_method         'generated by CrystalMaker X for macOS'
_cell_length_a                  40.781927(0)
_cell_length_b                  40.781927(0)
_cell_length_c                  40.781927(0)
_cell_angle_alpha               90.000000(0)
_cell_angle_beta                90.000000(0)
_cell_angle_gamma               90.000000(0)

_symmetry_space_group_name_H-M     'P 1'

loop_
_symmetry_equiv_pos_as_xyz
'+x,+y,+z'

loop_
_atom_site_label
_atom_site_type_symbol
_atom_site_occupancy
_atom_site_fract_x
_atom_site_fract_y
_atom_site_fract_z
 C  C 1.0  0.00000966(0)  0.77425303(0)  0.77427571(0)
 C  C 1.0  0.26505829(0)  0.11604767(0)  0.50030649(0)
 C  C 1.0  0.00008176(0)  0.17504644(0)  0.11662592(0)
 C  C 1.0  0.09920504(0)  -0.00001806(0)  0.79534267(0)
 C  C 1.0  0.70434653(0)  0.93743102(0)  0.49999232(0)
 C  C 1.0  0.16726557(0)  0.00032142(0)  0.20669876(0)
 C  C 1.0  0.47552888(0)  0.74984461(0)  0.77398396(0)
 C  C 1.0  0.20433989(0)  0.00001918(0)  0.06256641(0)
 C  C 1.0  0.50000662(0)  0.40079658(0)  0.79533739(0)
 C  C 1.0  0.00000129(0)  0.29533340(0)  0.40079025(0)
 C  C 1.0  0.25016602(0)  0.77399566(0)  0.52451509(0)
 C  C 1.0  0.50033274(0)  0.33271571(0)  0.79330169(0)
 C  C 1.0  0.17591868(0)  -0.00020591(0)  0.15083186(0)
 C  C 1.0  0.50000024(0)  0.09920173(0)  0.70466287(0)
 C  C 1.0  0.38336662(0)  0.50009914(0)  0.17507496(0)
 C  C 1.0  0.34918169(0)  0.82406282(0)  0.49979801(0)
 C  C 1.0  0.88392767(0)  0.73493837(0)  0.49971301(0)
 C  C 1.0  0.00009281(0)  0.88339188(0)  0.17505181(0)
 C  C 1.0  0.00016048(0)  0.23634533(0)  0.15011652(0)
 C  C 1.0  0.72575060(0)  0.49998099(0)  0.22573027(0)
 C  C 1.0  0.97551238(0)  0.22601417(0)  0.75016033(0)
 C  C 1.0  0.56256564(0)  0.50000778(0)  0.79564731(0)
 C  C 1.0  0.17504527(0)  -0.00008667(0)  0.11663187(0)
 C  C 1.0  0.49998514(0)  0.72575014(0)  0.22572904(0)
 C  C 1.0  0.27399858(0)  0.47552571(0)  0.75013852(0)
 C  C 1.0  0.76506247(0)  0.38394831(0)  0.49972506(0)
 C  C 1.0  0.49986181(0)  0.65011676(0)  0.76363221(0)
 C  C 1.0  0.34917305(0)  0.67596278(0)  -0.00019591(0)
 C  C 1.0  0.77426915(0)  0.50000986(0)  0.72574635(0)
 C  C 1.0  0.79330850(0)  0.16728358(0)  0.00033565(0)
 C  C 1.0  0.75014958(0)  0.77400440(0)  0.02445547(0)
 C  C 1.0  0.00001821(0)  0.06254778(0)  0.20435107(0)
 C  C 1.0  0.32494245(0)  0.50008792(0)  0.88334663(0)
 C  C 1.0  0.00020035(0)  0.15083054(0)  0.82406212(0)
 C  C 1.0  0.23493812(0)  0.49971490(0)  0.38395302(0)
 C  C 1.0  0.00028400(0)  0.11602322(0)  0.23494006(0)
 C  C 1.0  0.90079677(0)  0.00000621(0)  0.79534044(0)
 C  C 1.0  0.23636854(0)  -0.00017087(0)  0.84988513(0)
 C  C 1.0  0.79535248(0)  0.00000650(0)  0.09920467(0)
 C  C 1.0  0.00000899(0)  0.79534574(0)  0.90080870(0)
 C  C 1.0  0.24982540(0)  0.97548704(0)  0.22600708(0)
 C  C 1.0  0.65011856(0)  0.26362697(0)  -0.00018004(0)
 C  C 1.0  0.70466236(0)  0.49999285(0)  0.09920741(0)
 C  C 1.0  0.15008638(0)  -0.00020026(0)  0.23637274(0)
 C  C 1.0  0.77427057(0)  0.49997865(0)  0.27424716(0)
 C  C 1.0  0.17593238(0)  0.84917167(0)  -0.00020037(0)
 C  C 1.0  0.67507051(0)  0.00009619(0)  0.38335864(0)
 C  C 1.0  0.74985647(0)  0.22599468(0)  0.47550794(0)
 C  C 1.0  0.56256592(0)  0.70435305(0)  -0.00001142(0)
 C  C 1.0  0.38395152(0)  -0.00026114(0)  0.73493955(0)
 C  C 1.0  0.70435286(0)  0.49999085(0)  0.93743774(0)
 C  C 1.0  0.00002663(0)  0.20466007(0)  0.90079525(0)
 C  C 1.0  0.52447280(0)  0.25015210(0)  0.22600794(0)
 C  C 1.0  0.00020069(0)  0.32404836(0)  0.34915934(0)
 C  C 1.0  0.29330946(0)  0.50035557(0)  0.83269973(0)
 C  C 1.0  0.27426187(0)  -0.00000340(0)  0.72574173(0)
 C  C 1.0  0.17507668(0)  0.61663824(0)  0.49989661(0)
 C  C 1.0  0.00000161(0)  0.56255782(0)  0.70436063(0)
 C  C 1.0  0.23493093(0)  0.88395094(0)  0.00028345(0)
 C  C 1.0  0.29330353(0)  0.33270342(0)  0.00037138(0)
 C  C 1.0  0.72599736(0)  0.24985556(0)  0.52446623(0)
 C  C 1.0  0.22599424(0)  0.25013996(0)  0.47554838(0)
 C  C 1.0  0.00020807(0)  0.32405973(0)  0.65083821(0)
 C  C 1.0  0.50024479(0)  0.23493731(0)  0.38394728(0)
 C  C 1.0  0.79564787(0)  0.49999556(0)  0.43743481(0)
 C  C 1.0  0.97551142(0)  0.72602701(0)  0.25013988(0)
 C  C 1.0  0.82495215(0)  -0.00008000(0)  0.11662598(0)
 C  C 1.0  0.00001860(0)  0.40078890(0)  0.29533819(0)
 C  C 1.0  0.11662607(0)  0.82493995(0)  0.00010465(0)
 C  C 1.0  0.00016674(0)  0.73636540(0)  0.65013838(0)
 C  C 1.0  0.88395846(0)  0.76506460(0)  0.00025186(0)
 C  C 1.0  0.00009628(0)  0.11663231(0)  0.82493961(0)
 C  C 1.0  0.72598672(0)  0.75014590(0)  0.47546778(0)
 C  C 1.0  0.38336728(0)  0.00008835(0)  0.67506705(0)
 C  C 1.0  0.00024441(0)  0.61603450(0)  0.73495515(0)
 C  C 1.0  0.67594775(0)  0.34916398(0)  -0.00020652(0)
 C  C 1.0  0.74984755(0)  0.27398897(0)  0.97548898(0)
 C  C 1.0  0.50017501(0)  0.76362582(0)  0.34990021(0)
 C  C 1.0  0.67592635(0)  0.84916511(0)  0.50019720(0)
 C  C 1.0  0.49999743(0)  0.56256755(0)  0.79564983(0)
 C  C 1.0  0.00000140(0)  0.90081989(0)  0.20465413(0)
 C  C 1.0  0.22600755(0)  0.75016069(0)  0.02452123(0)
 C  C 1.0  0.77423537(0)  0.72572858(0)  0.49996582(0)
 C  C 1.0  0.00025682(0)  0.76506598(0)  0.88396529(0)
 C  C 1.0  0.29534823(0)  0.90079348(0)  0.50000452(0)
 C  C 1.0  0.16727861(0)  0.50033943(0)  0.70669911(0)
 C  C 1.0  0.84914688(0)  0.67594760(0)  0.50020124(0)
 C  C 1.0  0.83272117(0)  0.79331046(0)  -0.00034339(0)
 C  C 1.0  0.49981676(0)  0.26362814(0)  0.15011717(0)
 C  C 1.0  0.70669726(0)  0.50033402(0)  0.16728593(0)
 C  C 1.0  0.15010621(0)  0.49983466(0)  0.73637422(0)
 C  C 1.0  0.70669612(0)  0.16728631(0)  0.49966139(0)
 C  C 1.0  0.50015007(0)  0.23636946(0)  0.34988414(0)
 C  C 1.0  0.11604244(0)  0.49973838(0)  0.73494403(0)
 C  C 1.0  0.50034373(0)  0.20669045(0)  0.66729005(0)
 C  C 1.0  0.00001450(0)  0.20464370(0)  0.09920354(0)
 C  C 1.0  0.34988920(0)  0.49982398(0)  0.23638117(0)
 C  C 1.0  0.40080768(0)  0.79534147(0)  0.50001392(0)
 C  C 1.0  0.73493744(0)  0.00027546(0)  0.61605951(0)
 C  C 1.0  0.70669496(0)  -0.00033114(0)  0.66729496(0)
 C  C 1.0  0.50009578(0)  0.17506173(0)  0.61663657(0)
 C  C 1.0  0.66728645(0)  0.49966679(0)  0.79330419(0)
 C  C 1.0  0.49999699(0)  0.90079086(0)  0.29534601(0)
 C  C 1.0  0.50028587(0)  0.73494347(0)  0.88395145(0)
 C  C 1.0  0.59920766(0)  0.49999196(0)  0.79533812(0)
 C  C 1.0  0.34917174(0)  0.49978889(0)  0.82404168(0)
 C  C 1.0  0.76506234(0)  0.50023568(0)  0.38394893(0)
 C  C 1.0  0.00034192(0)  0.29330678(0)  0.66729066(0)
 C  C 1.0  0.49998893(0)  0.70435631(0)  0.06255985(0)
 C  C 1.0  0.38395322(0)  0.26505211(0)  0.00028642(0)
 C  C 1.0  0.83271629(0)  -0.00031294(0)  0.79331184(0)
 C  C 1.0  0.50020742(0)  0.82405949(0)  0.65082400(0)
 C  C 1.0  0.47551749(0)  0.75014105(0)  0.27400627(0)
 C  C 1.0  0.22573045(0)  0.77425420(0)  0.00002056(0)
 C  C 1.0  0.70435355(0)  0.43743188(0)  0.00001644(0)
 C  C 1.0  0.00019723(0)  0.15080837(0)  0.17593495(0)
 C  C 1.0  0.49989989(0)  0.17506409(0)  0.38336531(0)
 C  C 1.0  0.82406252(0)  0.49980275(0)  0.65083759(0)
 C  C 1.0  0.50018085(0)  0.26363272(0)  0.84988567(0)
 C  C 1.0  0.40079840(0)  0.50000613(0)  0.79532989(0)
 C  C 1.0  0.50019222(0)  0.84916454(0)  0.32406619(0)
 C  C 1.0  0.50027770(0)  0.88394673(0)  0.73493196(0)
 C  C 1.0  0.15010593(0)  0.76363278(0)  -0.00014106(0)
 C  C 1.0  0.65083382(0)  0.49980404(0)  0.82405822(0)
 C  C 1.0  0.79331072(0)  0.49964915(0)  0.66729041(0)
 C  C 1.0  0.29533426(0)  0.00000066(0)  0.40078737(0)
 C  C 1.0  0.00020050(0)  0.26362260(0)  0.34988409(0)
 C  C 1.0  0.72575341(0)  -0.00000525(0)  0.27425915(0)
 C  C 1.0  0.17594488(0)  0.34916539(0)  0.50021002(0)
 C  C 1.0  0.50000305(0)  0.43743999(0)  0.79564480(0)
 C  C 1.0  0.16728059(0)  0.79330759(0)  0.00035829(0)
 C  C 1.0  0.73493749(0)  0.61605300(0)  0.00023528(0)
 C  C 1.0  0.32493879(0)  0.49990525(0)  0.11664948(0)
 C  C 1.0  0.50000990(0)  0.79564558(0)  0.43744461(0)
 C  C 1.0  0.59919187(0)  0.79533772(0)  0.49999196(0)
 C  C 1.0  0.73494139(0)  -0.00025997(0)  0.38394911(0)
 C  C 1.0  0.00003460(0)  0.20435221(0)  0.93743383(0)
 C  C 1.0  0.23638659(0)  0.65010874(0)  0.50019478(0)
 C  C 1.0  0.59921354(0)  0.00000327(0)  0.29533216(0)
 C  C 1.0  0.16727990(0)  0.20669313(0)  0.00037696(0)
 C  C 1.0  0.70466101(0)  0.59920971(0)  -0.00000607(0)
 C  C 1.0  0.22600153(0)  0.24983976(0)  0.02451815(0)
 C  C 1.0  0.49965520(0)  0.70670039(0)  0.83271465(0)
 C  C 1.0  0.50009494(0)  0.32493364(0)  0.11663739(0)
 C  C 1.0  0.33271361(0)  0.00035289(0)  0.70669633(0)
 C  C 1.0  0.00019578(0)  0.82408476(0)  0.15082094(0)
 C  C 1.0  0.00010371(0)  0.67506289(0)  0.61665432(0)
 C  C 1.0  0.11604426(0)  0.23493815(0)  -0.00025175(0)
 C  C 1.0  0.49980367(0)  0.84916785(0)  0.67593354(0)
 C  C 1.0  0.70466091(0)  -0.00001064(0)  0.59921631(0)
 C  C 1.0  0.00000861(0)  0.22574100(0)  0.77425819(0)
 C  C 1.0  0.23636858(0)  0.49981103(0)  0.34988902(0)
 C  C 1.0  0.43743204(0)  -0.00000579(0)  0.29564611(0)
 C  C 1.0  0.20466206(0)  0.40079181(0)  0.49999158(0)
 C  C 1.0  0.88337129(0)  -0.00010390(0)  0.82493797(0)
 C  C 1.0  0.15080814(0)  0.00018885(0)  0.17594065(0)
 C  C 1.0  0.76506531(0)  -0.00027083(0)  0.88395685(0)
 C  C 1.0  0.27426738(0)  0.49997577(0)  0.22575572(0)
 C  C 1.0  0.00000286(0)  0.70465426(0)  0.59923221(0)
 C  C 1.0  0.38394716(0)  0.00025606(0)  0.26505777(0)
 C  C 1.0  0.49999463(0)  0.59921115(0)  0.20465521(0)
 C  C 1.0  0.61605060(0)  0.50028850(0)  0.76505997(0)
 C  C 1.0  0.52447182(0)  0.77400573(0)  0.25014444(0)
 C  C 1.0  0.02444103(0)  0.22597876(0)  0.24986159(0)
 C  C 1.0  0.06255941(0)  0.49999722(0)  0.70435694(0)
 C  C 1.0  0.82406258(0)  0.15082775(0)  0.00019074(0)
 C  C 1.0  0.67594256(0)  0.15083441(0)  0.49978609(0)
 C  C 1.0  0.83271546(0)  0.29330173(0)  0.49963398(0)
 C  C 1.0  0.20668599(0)  0.49965645(0)  0.66728825(0)
 C  C 1.0  0.32493847(0)  0.38334805(0)  0.00010195(0)
 C  C 1.0  0.20465380(0)  0.90079503(0)  0.00001801(0)
 C  C 1.0  0.56256735(0)  -0.00001207(0)  0.29564129(0)
 C  C 1.0  0.49965960(0)  0.20669386(0)  0.33271470(0)
 C  C 1.0  0.29564916(0)  0.50001650(0)  0.93740475(0)
 C  C 1.0  0.56256502(0)  0.20435359(0)  0.49997697(0)
 C  C 1.0  0.84989557(0)  0.49983422(0)  0.73637453(0)
 C  C 1.0  0.50001038(0)  0.29564970(0)  0.93743476(0)
 C  C 1.0  0.84988872(0)  0.23636530(0)  0.00015203(0)
 C  C 1.0  0.49990834(0)  0.61663706(0)  0.17506001(0)
 C  C 1.0  0.38396242(0)  0.73495244(0)  0.00028064(0)
 C  C 1.0  0.20466138(0)  -0.00000806(0)  0.90079295(0)
 C  C 1.0  0.65083419(0)  0.67594680(0)  0.00020524(0)
 C  C 1.0  0.34989502(0)  0.50017622(0)  0.76361543(0)
 C  C 1.0  0.00015613(0)  0.34989107(0)  0.73637487(0)
 C  C 1.0  0.22600100(0)  0.52449651(0)  0.74985061(0)
 C  C 1.0  0.00000495(0)  0.70466176(0)  0.40076493(0)
 C  C 1.0  0.50017285(0)  0.15010648(0)  0.73637449(0)
 C  C 1.0  0.11663130(0)  -0.00008897(0)  0.82493939(0)
 C  C 1.0  0.72573629(0)  0.00002459(0)  0.72575006(0)
 C  C 1.0  0.11661151(0)  0.00008900(0)  0.17506378(0)
 C  C 1.0  0.49979649(0)  0.34916460(0)  0.17594408(0)
 C  C 1.0  0.56257081(0)  0.50000118(0)  0.20435061(0)
 C  C 1.0  0.82406342(0)  0.00019042(0)  0.84917374(0)
 C  C 1.0  0.17593330(0)  0.15083075(0)  -0.00020961(0)
 C  C 1.0  0.47549032(0)  0.24984363(0)  0.27399275(0)
 C  C 1.0  0.66728084(0)  0.00037271(0)  0.70670493(0)
 C  C 1.0  0.00026696(0)  0.26506490(0)  0.61605601(0)
 C  C 1.0  0.32406047(0)  0.49979156(0)  0.15084830(0)
 C  C 1.0  0.00025078(0)  0.73493814(0)  0.38392943(0)
 C  C 1.0  0.15083632(0)  0.32405620(0)  0.49980134(0)
 C  C 1.0  0.50008708(0)  0.61663666(0)  0.82493741(0)
 C  C 1.0  0.49983112(0)  0.76363038(0)  0.65010331(0)
 C  C 1.0  0.50035145(0)  0.66728882(0)  0.79330648(0)
 C  C 1.0  0.22573806(0)  0.00000193(0)  0.77425762(0)
 C  C 1.0  0.00021117(0)  0.67595118(0)  0.34914329(0)
 C  C 1.0  0.50000340(0)  0.29534355(0)  0.90079024(0)
 C  C 1.0  0.76365315(0)  0.00018939(0)  0.15011790(0)
 C  C 1.0  0.76363679(0)  0.50019123(0)  0.65011998(0)
 C  C 1.0  0.50000566(0)  0.27426568(0)  0.77425556(0)
 C  C 1.0  0.20435491(0)  0.43743615(0)  0.49999390(0)
 C  C 1.0  0.84986285(0)  0.73637382(0)  0.49980172(0)
 C  C 1.0  0.50021334(0)  0.32405561(0)  0.15083609(0)
 C  C 1.0  0.79331366(0)  0.83271919(0)  0.00032590(0)
 C  C 1.0  0.65011998(0)  0.00016109(0)  0.26362147(0)
 C  C 1.0  0.00008805(0)  0.38336776(0)  0.67506764(0)
 C  C 1.0  0.17506713(0)  0.38336488(0)  0.50010608(0)
 C  C 1.0  0.25014767(0)  0.27398976(0)  0.02451504(0)
 C  C 1.0  0.40079331(0)  0.29533017(0)  0.00000724(0)
 C  C 1.0  0.82404082(0)  0.65083742(0)  0.49978761(0)
 C  C 1.0  0.77398491(0)  0.74985410(0)  0.52443691(0)
 C  C 1.0  0.06256813(0)  0.29564523(0)  0.50001662(0)
 C  C 1.0  0.17594033(0)  0.00020607(0)  0.84916761(0)
 C  C 1.0  0.67506752(0)  0.38336271(0)  -0.00008523(0)
 C  C 1.0  0.50001164(0)  0.79533952(0)  0.59919841(0)
 C  C 1.0  0.50021224(0)  0.34916901(0)  0.82405499(0)
 C  C 1.0  0.34988269(0)  0.23636790(0)  0.49985343(0)
 C  C 1.0  0.52447553(0)  0.74985568(0)  0.22599902(0)
 C  C 1.0  0.00000769(0)  0.59919745(0)  0.70467357(0)
 C  C 1.0  0.32494449(0)  0.61665476(0)  0.00008847(0)
 C  C 1.0  0.26363151(0)  0.00017625(0)  0.65011108(0)
 C  C 1.0  0.50000057(0)  0.43743138(0)  0.20435416(0)
 C  C 1.0  0.77402044(0)  0.02447888(0)  0.24985748(0)
 C  C 1.0  0.61664323(0)  -0.00008885(0)  0.32492679(0)
 C  C 1.0  0.27400204(0)  0.74986727(0)  0.97554706(0)
 C  C 1.0  0.00000833(0)  0.59921253(0)  0.29532315(0)
 C  C 1.0  0.65011470(0)  0.50017698(0)  0.76362912(0)
 C  C 1.0  0.97551106(0)  0.75018260(0)  0.22599946(0)
 C  C 1.0  0.29534151(0)  0.40076770(0)  0.00002157(0)
 C  C 1.0  0.65010814(0)  -0.00016266(0)  0.73637779(0)
 C  C 1.0  0.17506501(0)  0.50009418(0)  0.38337027(0)
 C  C 1.0  0.32492952(0)  0.00008960(0)  0.38335893(0)
 C  C 1.0  0.77399601(0)  0.52447849(0)  0.25015126(0)
 C  C 1.0  0.33271267(0)  0.20669265(0)  0.50036126(0)
 C  C 1.0  0.26363408(0)  0.49983421(0)  0.84986814(0)
 C  C 1.0  0.27398304(0)  0.97549317(0)  0.25014658(0)
 C  C 1.0  0.61663493(0)  0.67506674(0)  0.00009723(0)
 C  C 1.0  0.79565473(0)  0.00000815(0)  0.06256098(0)
 C  C 1.0  0.00021275(0)  0.34916934(0)  0.67594627(0)
 C  C 1.0  0.17593355(0)  0.49980420(0)  0.65083556(0)
 C  C 1.0  0.00001288(0)  0.29564230(0)  0.43743641(0)
 C  C 1.0  0.25015766(0)  0.52449947(0)  0.77398915(0)
 C  C 1.0  0.00000047(0)  0.70435158(0)  0.43741201(0)
 C  C 1.0  0.24985424(0)  0.77401469(0)  0.97554977(0)
 C  C 1.0  0.50009794(0)  0.67506835(0)  0.11662992(0)
 C  C 1.0  0.00015464(0)  0.65011316(0)  0.26360732(0)
 C  C 1.0  0.49980338(0)  0.65083729(0)  0.17593764(0)
 C  C 1.0  0.50009656(0)  0.38336850(0)  0.82493293(0)
 C  C 1.0  0.70466320(0)  0.40078999(0)  -0.00001213(0)
 C  C 1.0  0.23491732(0)  0.00027228(0)  0.11605920(0)
 C  C 1.0  0.34988326(0)  0.00014748(0)  0.26362342(0)
 C  C 1.0  0.20671563(0)  0.66728528(0)  0.49967434(0)
 C  C 1.0  0.49991481(0)  0.38336339(0)  0.17506587(0)
 C  C 1.0  0.00001459(0)  0.27426091(0)  0.72574364(0)
 C  C 1.0  0.15010767(0)  0.23636748(0)  -0.00016766(0)
 C  C 1.0  0.15083209(0)  0.49980319(0)  0.32406270(0)
 C  C 1.0  0.76363496(0)  -0.00016138(0)  0.84989450(0)
 C  C 1.0  0.79532930(0)  0.59920841(0)  0.50000028(0)
 C  C 1.0  0.00000567(0)  0.29534207(0)  0.59921282(0)
 C  C 1.0  0.49965088(0)  0.33271303(0)  0.20669813(0)
 C  C 1.0  0.22573719(0)  0.50001216(0)  0.72574014(0)
 C  C 1.0  0.00036751(0)  0.66727679(0)  0.70672021(0)
 C  C 1.0  0.66728516(0)  0.20669676(0)  0.50033367(0)
 C  C 1.0  0.82494039(0)  0.11662978(0)  0.00008306(0)
 C  C 1.0  0.82405860(0)  0.49979330(0)  0.34916629(0)
 C  C 1.0  0.00017287(0)  0.76363596(0)  0.84990265(0)
 C  C 1.0  0.00009731(0)  0.61663139(0)  0.67507942(0)
 C  C 1.0  0.88395214(0)  0.26506053(0)  0.50025511(0)
 C  C 1.0  0.33271470(0)  0.29328790(0)  -0.00032671(0)
 C  C 1.0  0.49998162(0)  0.79533713(0)  0.40080522(0)
 C  C 1.0  0.50028352(0)  0.26506606(0)  0.88394962(0)
 C  C 1.0  0.49971001(0)  0.11605036(0)  0.26506025(0)
 C  C 1.0  0.23492955(0)  0.50027865(0)  0.61605555(0)
 C  C 1.0  0.88395113(0)  0.49973117(0)  0.26505890(0)
 C  C 1.0  0.61604485(0)  -0.00024481(0)  0.73494541(0)
 C  C 1.0  0.00025111(0)  0.61604920(0)  0.26504180(0)
 C  C 1.0  0.77401139(0)  0.52449066(0)  0.74986121(0)
 C  C 1.0  0.22574536(0)  0.49997922(0)  0.27427184(0)
 C  C 1.0  0.00000855(0)  0.09917832(0)  0.20465843(0)
 C  C 1.0  0.00001667(0)  0.79565711(0)  0.06256359(0)
 C  C 1.0  0.72574312(0)  0.50001362(0)  0.77426004(0)
 C  C 1.0  0.29330159(0)  0.16728327(0)  0.49967379(0)
 C  C 1.0  0.11662615(0)  0.50008868(0)  0.67506717(0)
 C  C 1.0  0.79565228(0)  0.93744195(0)  0.00001020(0)
 C  C 1.0  0.00018593(0)  0.84991290(0)  0.23636138(0)
 C  C 1.0  0.34988710(0)  -0.00017100(0)  0.73637029(0)
 C  C 1.0  0.72599853(0)  0.02450649(0)  0.74986468(0)
 C  C 1.0  0.29564711(0)  0.43740801(0)  -0.00001035(0)
 C  C 1.0  0.20465300(0)  0.50000501(0)  0.59921156(0)
 C  C 1.0  0.61605194(0)  0.50024651(0)  0.23493869(0)
 C  C 1.0  0.15011620(0)  0.26362788(0)  0.50019209(0)
 C  C 1.0  0.49997473(0)  0.27424925(0)  0.22573485(0)
 C  C 1.0  0.88397754(0)  -0.00027031(0)  0.23493676(0)
 C  C 1.0  0.84988628(0)  0.00017065(0)  0.76363491(0)
 C  C 1.0  0.26364323(0)  0.84988237(0)  0.49984035(0)
 C  C 1.0  0.70435381(0)  0.06256691(0)  0.50000418(0)
 C  C 1.0  0.67506635(0)  0.61663751(0)  -0.00009862(0)
 C  C 1.0  0.65083918(0)  0.32405448(0)  0.00020516(0)
 C  C 1.0  0.73494024(0)  0.49972792(0)  0.11605023(0)
 C  C 1.0  0.82493512(0)  0.38336489(0)  0.50008962(0)
 C  C 1.0  0.00014787(0)  0.73637676(0)  0.34986470(0)
 C  C 1.0  0.75014730(0)  0.47550677(0)  0.27400006(0)
 C  C 1.0  0.20669357(0)  0.00034053(0)  0.83271285(0)
 C  C 1.0  0.26506848(0)  0.61606990(0)  -0.00023992(0)
 C  C 1.0  0.09920763(0)  0.49998982(0)  0.29534370(0)
 C  C 1.0  0.59920777(0)  0.20466060(0)  0.50000013(0)
 C  C 1.0  0.84988832(0)  0.26362821(0)  0.50016581(0)
 C  C 1.0  0.00001594(0)  0.29564958(0)  0.56257049(0)
 C  C 1.0  0.70670196(0)  0.33271442(0)  -0.00036164(0)
 C  C 1.0  0.73637730(0)  -0.00017697(0)  0.34988453(0)
 C  C 1.0  0.73494208(0)  0.38395002(0)  0.00024599(0)
 C  C 1.0  0.66728560(0)  0.49965154(0)  0.20669517(0)
 C  C 1.0  0.34990231(0)  0.76363173(0)  0.50020796(0)
 C  C 1.0  0.50000645(0)  0.70466450(0)  0.90079356(0)
 C  C 1.0  0.00000258(0)  0.06256798(0)  0.79564950(0)
 C  C 1.0  0.76506848(0)  0.50028189(0)  0.61605572(0)
 C  C 1.0  0.88337132(0)  0.50009187(0)  0.67506649(0)
 C  C 1.0  0.23637243(0)  0.34988479(0)  0.49985438(0)
 C  C 1.0  0.76361292(0)  0.65010891(0)  0.50013454(0)
 C  C 1.0  0.29330470(0)  0.49964913(0)  0.16729490(0)
 C  C 1.0  0.27427480(0)  0.77425440(0)  0.50002957(0)
 C  C 1.0  0.50000821(0)  0.22573726(0)  0.72574210(0)
 C  C 1.0  0.43744344(0)  0.79564944(0)  0.50000088(0)
 C  C 1.0  0.61605489(0)  0.00025016(0)  0.26505417(0)
 C  C 1.0  0.00036690(0)  0.20666856(0)  0.16728389(0)
 C  C 1.0  0.90079396(0)  0.29533854(0)  0.49997973(0)
 C  C 1.0  0.70466058(0)  0.50001956(0)  0.90079406(0)
 C  C 1.0  0.43744054(0)  0.49999929(0)  0.20435996(0)
 C  C 1.0  0.00021043(0)  0.84917312(0)  0.82407017(0)
 C  C 1.0  0.93744957(0)  -0.00002256(0)  0.20434515(0)
 C  C 1.0  0.11602411(0)  -0.00028442(0)  0.23494658(0)
 C  C 1.0  0.00008638(0)  0.82495676(0)  0.11662232(0)
 C  C 1.0  0.15082406(0)  0.82406212(0)  0.00020756(0)
 C  C 1.0  0.49991683(0)  0.67506752(0)  0.88336566(0)
 C  C 1.0  0.33272032(0)  0.49966389(0)  0.79328784(0)
 C  C 1.0  0.73637068(0)  0.65011786(0)  0.00014173(0)
 C  C 1.0  0.00034369(0)  0.70669036(0)  0.66730440(0)
 C  C 1.0  0.49979392(0)  0.17594068(0)  0.34916672(0)
 C  C 1.0  0.23493900(0)  -0.00026665(0)  0.88394927(0)
 C  C 1.0  0.66729332(0)  -0.00036148(0)  0.29329444(0)
 C  C 1.0  0.50001962(0)  0.20435239(0)  0.43743152(0)
 C  C 1.0  0.75013443(0)  0.72599768(0)  0.47547062(0)
 C  C 1.0  0.49991431(0)  0.82493446(0)  0.38337591(0)
 C  C 1.0  0.32493339(0)  0.11663211(0)  0.49991193(0)
 C  C 1.0  0.66728409(0)  0.70670203(0)  0.00031277(0)
 C  C 1.0  0.50000033(0)  0.20466019(0)  0.40079058(0)
 C  C 1.0  0.47553622(0)  0.22598913(0)  0.74986614(0)
 C  C 1.0  0.52447234(0)  0.22600493(0)  0.25015617(0)
 C  C 1.0  0.50000525(0)  0.06256798(0)  0.29564661(0)
 C  C 1.0  0.88336618(0)  0.32493431(0)  0.49992112(0)
 C  C 1.0  0.32405080(0)  0.00019573(0)  0.34915958(0)
 C  C 1.0  0.23493301(0)  0.11605168(0)  0.00029657(0)
 C  C 1.0  0.29534228(0)  0.49999044(0)  0.09922883(0)
 C  C 1.0  0.82405796(0)  0.34916513(0)  0.50020557(0)
 C  C 1.0  0.33272822(0)  0.79330673(0)  0.49969312(0)
 C  C 1.0  0.84916719(0)  0.50020480(0)  0.32405675(0)
 C  C 1.0  0.52452105(0)  0.72601260(0)  0.75015974(0)
 C  C 1.0  0.00000707(0)  0.70435001(0)  0.56258050(0)
 C  C 1.0  0.00000807(0)  0.72573968(0)  0.27424000(0)
 C  C 1.0  0.79330870(0)  0.00034824(0)  0.83272009(0)
 C  C 1.0  0.43743927(0)  -0.00000471(0)  0.70435449(0)
 C  C 1.0  0.49979197(0)  0.82405624(0)  0.34917698(0)
 C  C 1.0  0.65083223(0)  0.00021303(0)  0.67594941(0)
 C  C 1.0  0.90081999(0)  -0.00000889(0)  0.20465375(0)
 C  C 1.0  0.22574269(0)  0.27425951(0)  0.50002450(0)
 C  C 1.0  0.29565174(0)  0.56259254(0)  0.00002272(0)
 C  C 1.0  0.25014759(0)  0.22599834(0)  0.47554481(0)
 C  C 1.0  0.27400466(0)  0.52446246(0)  0.24986487(0)
 C  C 1.0  0.50000626(0)  0.29533739(0)  0.09921130(0)
 C  C 1.0  0.65010999(0)  0.73637516(0)  -0.00019286(0)
 C  C 1.0  0.00020329(0)  0.82406583(0)  0.84918109(0)
 C  C 1.0  0.00035423(0)  0.33271886(0)  0.70670115(0)
 C  C 1.0  0.49999052(0)  0.20435096(0)  0.56256518(0)
 C  C 1.0  0.84991599(0)  -0.00019469(0)  0.23636453(0)
 C  C 1.0  0.83272257(0)  0.50034892(0)  0.70670072(0)
 C  C 1.0  0.67594377(0)  0.50019627(0)  0.15083281(0)
 C  C 1.0  0.26362732(0)  0.15011117(0)  0.50020218(0)
 C  C 1.0  0.29331954(0)  0.83271321(0)  0.50035011(0)
 C  C 1.0  0.82492429(0)  0.61663954(0)  0.49990968(0)
 C  C 1.0  0.49965718(0)  0.29330690(0)  0.83271514(0)
 C  C 1.0  0.34916781(0)  0.00019579(0)  0.67594318(0)
 C  C 1.0  0.59920638(0)  -0.00000814(0)  0.70466480(0)
 C  C 1.0  0.00026433(0)  0.73492713(0)  0.61607291(0)
 C  C 1.0  0.79533947(0)  0.40079104(0)  0.49999106(0)
 C  C 1.0  0.00008930(0)  0.17506218(0)  0.88336848(0)
 C  C 1.0  0.93744184(0)  0.79565089(0)  -0.00000150(0)
 C  C 1.0  0.90080362(0)  0.79534323(0)  -0.00000834(0)
 C  C 1.0  0.00020377(0)  0.67594081(0)  0.65085555(0)
 C  C 1.0  0.00021596(0)  0.15008564(0)  0.23636682(0)
 C  C 1.0  0.88339068(0)  0.00009574(0)  0.17505270(0)
 C  C 1.0  0.73493804(0)  0.49973992(0)  0.88395129(0)
 C  C 1.0  0.90079264(0)  0.49998743(0)  0.29533782(0)
 C  C 1.0  0.79564915(0)  0.06256589(0)  -0.00001083(0)
 C  C 1.0  0.49998612(0)  0.79564861(0)  0.56256256(0)
 C  C 1.0  0.15010907(0)  0.00018125(0)  0.76363174(0)
 C  C 1.0  0.16728127(0)  -0.00034585(0)  0.79330561(0)
 C  C 1.0  0.73493905(0)  0.11605134(0)  0.50026588(0)
 C  C 1.0  0.49974525(0)  0.76505914(0)  0.61604063(0)
 C  C 1.0  0.61605439(0)  0.26505867(0)  -0.00027101(0)
 C  C 1.0  0.50000591(0)  0.93743283(0)  0.70434910(0)
 C  C 1.0  0.83271848(0)  0.20668930(0)  -0.00035271(0)
 C  C 1.0  0.20464318(0)  -0.00001847(0)  0.09921147(0)
 C  C 1.0  0.84919358(0)  0.00021048(0)  0.17593216(0)
 C  C 1.0  0.50019382(0)  0.15083247(0)  0.32405776(0)
 C  C 1.0  0.09923050(0)  0.70466025(0)  0.49997872(0)
 C  C 1.0  0.38336971(0)  0.49990056(0)  0.82492412(0)
 C  C 1.0  0.32407093(0)  0.84916989(0)  0.50020587(0)
 C  C 1.0  0.26505623(0)  -0.00027806(0)  0.38394649(0)
 C  C 1.0  0.02449299(0)  0.74985307(0)  0.27398615(0)
 C  C 1.0  0.49989922(0)  0.11662965(0)  0.67506674(0)
 C  C 1.0  0.50020292(0)  0.73637387(0)  0.84988773(0)
 C  C 1.0  0.52448704(0)  0.27400488(0)  0.75014105(0)
 C  C 1.0  0.70435331(0)  -0.00001114(0)  0.56257217(0)
 C  C 1.0  0.49971913(0)  0.26505963(0)  0.11605367(0)
 C  C 1.0  0.11662619(0)  0.17506279(0)  0.00008502(0)
 C  C 1.0  0.20666818(0)  -0.00035175(0)  0.16728786(0)
 C  C 1.0  0.76504810(0)  0.61604590(0)  0.50023746(0)
 C  C 1.0  0.23636088(0)  0.50020934(0)  0.65011918(0)
 C  C 1.0  0.49980133(0)  0.32406058(0)  0.84916466(0)
 C  C 1.0  0.50008932(0)  0.88336470(0)  0.32494179(0)
 C  C 1.0  0.88337487(0)  0.82494135(0)  -0.00008491(0)
 C  C 1.0  0.38337145(0)  0.67507863(0)  -0.00010439(0)
 C  C 1.0  0.00017901(0)  0.15011348(0)  0.76363347(0)
 C  C 1.0  0.77400716(0)  0.24985165(0)  0.97549912(0)
 C  C 1.0  0.27426395(0)  0.50001039(0)  0.77424906(0)
 C  C 1.0  0.00003156(0)  0.22572553(0)  0.22574032(0)
 C  C 1.0  0.38337958(0)  0.82493990(0)  0.49991430(0)
 C  C 1.0  0.29330543(0)  -0.00034627(0)  0.66728213(0)
 C  C 1.0  0.88334650(0)  0.67507008(0)  0.50009470(0)
 C  C 1.0  0.43743756(0)  0.29563942(0)  0.00000642(0)
 C  C 1.0  0.97553659(0)  0.77400080(0)  0.75015398(0)
 C  C 1.0  0.75014113(0)  0.27400684(0)  0.52446154(0)
 C  C 1.0  0.49999755(0)  0.20465703(0)  0.59921049(0)
 C  C 1.0  0.76506833(0)  0.88395504(0)  -0.00029061(0)
 C  C 1.0  0.26362425(0)  -0.00018935(0)  0.34988211(0)
 C  C 1.0  0.00021015(0)  0.65084294(0)  0.32403471(0)
 C  C 1.0  0.67506542(0)  0.11663543(0)  0.49990350(0)
 C  C 1.0  0.15011249(0)  0.50016989(0)  0.26363352(0)
 C  C 1.0  0.02443677(0)  0.25012990(0)  0.27400653(0)
 C  C 1.0  0.49972470(0)  0.88394432(0)  0.26507095(0)
 C  C 1.0  0.43743204(0)  0.20435155(0)  0.49997525(0)
 C  C 1.0  0.32406548(0)  0.65085398(0)  0.00021036(0)
 C  C 1.0  0.49981994(0)  0.15011331(0)  0.26362913(0)
 C  C 1.0  0.00036751(0)  0.66729051(0)  0.29327757(0)
 C  C 1.0  0.74985940(0)  0.72600222(0)  0.97549105(0)
 C  C 1.0  0.11604609(0)  0.00027484(0)  0.76506378(0)
 C  C 1.0  0.27399608(0)  0.25014332(0)  0.97554419(0)
 C  C 1.0  0.09919946(0)  0.79534048(0)  0.00000982(0)
 C  C 1.0  0.74984245(0)  0.97553551(0)  0.72601198(0)
 C  C 1.0  0.82408056(0)  -0.00019472(0)  0.15082583(0)
 C  C 1.0  0.33271083(0)  -0.00036098(0)  0.29329650(0)
 C  C 1.0  0.50003437(0)  0.59920969(0)  0.79534171(0)
 C  C 1.0  0.90079866(0)  0.50000172(0)  0.70466318(0)
 C  C 1.0  0.49979278(0)  0.15082883(0)  0.67594505(0)
 C  C 1.0  0.32493814(0)  -0.00009453(0)  0.61663296(0)
 C  C 1.0  0.59921070(0)  0.50000223(0)  0.20466000(0)
 C  C 1.0  0.77399157(0)  0.97553135(0)  0.75015856(0)
 C  C 1.0  0.79565244(0)  -0.00000673(0)  0.93743657(0)
 C  C 1.0  0.77425042(0)  0.00001144(0)  0.77427266(0)
 C  C 1.0  0.84916691(0)  0.32405599(0)  0.49979150(0)
 C  C 1.0  0.00009576(0)  0.61664462(0)  0.32491825(0)
 C  C 1.0  0.00014071(0)  0.65009819(0)  0.73639060(0)
 C  C 1.0  0.75017376(0)  0.97551111(0)  0.22600094(0)
 C  C 1.0  0.74982955(0)  0.77399354(0)  0.52444264(0)
 C  C 1.0  0.02448814(0)  0.72598576(0)  0.74988550(0)
 C  C 1.0  0.79564934(0)  0.50000010(0)  0.56256653(0)
 C  C 1.0  0.29564459(0)  0.06256437(0)  0.49998902(0)
 C  C 1.0  0.74986897(0)  0.02447653(0)  0.27400261(0)
 C  C 1.0  0.11604307(0)  0.76506038(0)  -0.00022903(0)
 C  C 1.0  0.73637087(0)  0.15011495(0)  0.50015922(0)
 C  C 1.0  0.50034077(0)  0.29330232(0)  0.16728893(0)
 C  C 1.0  0.11605267(0)  0.26506000(0)  0.50028768(0)
 C  C 1.0  0.90076764(0)  0.70466375(0)  0.49999453(0)
 C  C 1.0  0.70670607(0)  0.00035495(0)  0.33271047(0)
 C  C 1.0  0.38394618(0)  0.23493537(0)  0.49975172(0)
 C  C 1.0  0.06258306(0)  0.70435364(0)  0.50001915(0)
 C  C 1.0  0.93743538(0)  0.20434919(0)  0.00002043(0)
 C  C 1.0  0.00000675(0)  0.09920720(0)  0.79534162(0)
 C  C 1.0  0.16728804(0)  0.29330208(0)  0.49967583(0)
 C  C 1.0  0.82494246(0)  0.88337380(0)  0.00009986(0)
 C  C 1.0  0.29331159(0)  0.66730087(0)  0.00036836(0)
 C  C 1.0  0.29564763(0)  0.49997823(0)  0.06258876(0)
 C  C 1.0  0.65009423(0)  0.76362755(0)  0.50014253(0)
 C  C 1.0  0.00000121(0)  0.40079519(0)  0.70466409(0)
 C  C 1.0  0.00008687(0)  0.38335842(0)  0.32493087(0)
 C  C 1.0  0.93743330(0)  0.49999864(0)  0.29564579(0)
 C  C 1.0  0.09919996(0)  0.49999501(0)  0.70466506(0)
 C  C 1.0  0.77426076(0)  0.27425814(0)  0.49998508(0)
 C  C 1.0  0.27425151(0)  -0.00002078(0)  0.27425687(0)
 C  C 1.0  0.52448667(0)  0.24985416(0)  0.72599667(0)
 C  C 1.0  0.93743866(0)  -0.00000408(0)  0.79564713(0)
 C  C 1.0  0.50002003(0)  0.77425052(0)  0.72572847(0)
 C  C 1.0  0.29534550(0)  0.49998791(0)  0.90076612(0)
 C  C 1.0  0.66729016(0)  0.29330068(0)  0.00034362(0)
 C  C 1.0  0.33272160(0)  0.70671692(0)  -0.00033285(0)
 C  C 1.0  0.72573242(0)  0.72575230(0)  -0.00003968(0)
 C  C 1.0  0.00024243(0)  0.23491769(0)  0.11605222(0)
 C  C 1.0  0.88336609(0)  0.50009348(0)  0.32493515(0)
 C  C 1.0  0.25014184(0)  0.02446609(0)  0.27399653(0)
 C  C 1.0  0.70667754(0)  0.83270895(0)  0.50031142(0)
 C  C 1.0  0.00000114(0)  0.93744810(0)  0.20434675(0)
 C  C 1.0  0.50020845(0)  0.84988319(0)  0.73636104(0)
 C  C 1.0  0.97548081(0)  0.24983282(0)  0.22599531(0)
 C  C 1.0  0.66726861(0)  0.79330249(0)  0.49963393(0)
 C  C 1.0  0.82493669(0)  0.49989497(0)  0.38336582(0)
 C  C 1.0  0.61663378(0)  0.00009223(0)  0.67506853(0)
 C  C 1.0  0.49998527(0)  0.93743667(0)  0.29565167(0)
 C  C 1.0  0.47554127(0)  0.25013377(0)  0.77401727(0)
 C  C 1.0  0.61604601(0)  0.73494283(0)  -0.00029010(0)
 C  C 1.0  0.50027170(0)  0.11604273(0)  0.73494172(0)
 C  C 1.0  0.50032107(0)  0.70670240(0)  0.16728062(0)
 C  C 1.0  0.50021161(0)  0.67594748(0)  0.15082883(0)
 C  C 1.0  0.67506530(0)  -0.00008435(0)  0.61664267(0)
 C  C 1.0  0.73635419(0)  0.84987672(0)  0.49977389(0)
 C  C 1.0  0.49981203(0)  0.84987977(0)  0.26364027(0)
 C  C 1.0  0.50000356(0)  0.90079167(0)  0.70465521(0)
 C  C 1.0  0.15085171(0)  0.67594519(0)  0.50021653(0)
 C  C 1.0  0.26506447(0)  0.49974184(0)  0.88393132(0)
 C  C 1.0  0.50037373(0)  0.79330407(0)  0.66727749(0)
 C  C 1.0  0.00026617(0)  0.88397414(0)  0.23493597(0)
 C  C 1.0  0.00023328(0)  0.38394838(0)  0.26506056(0)
 C  C 1.0  0.79534419(0)  0.49999506(0)  0.59921156(0)
 C  C 1.0  0.00027018(0)  0.88395044(0)  0.76507119(0)
 C  C 1.0  0.27427432(0)  0.72576146(0)  0.00003729(0)
 C  C 1.0  0.76363894(0)  0.84989139(0)  -0.00020133(0)
 C  C 1.0  0.22599218(0)  0.97552196(0)  0.75014215(0)
 C  C 1.0  0.70435398(0)  0.50000019(0)  0.06256753(0)
 C  C 1.0  0.20434749(0)  0.93743832(0)  -0.00000756(0)
 C  C 1.0  0.34989907(0)  0.73638788(0)  0.00017884(0)
 C  C 1.0  0.50001832(0)  0.72573895(0)  0.77425188(0)
 C  C 1.0  0.75015195(0)  0.47553096(0)  0.72599984(0)
 C  C 1.0  0.49966953(0)  0.83271335(0)  0.70668596(0)
 C  C 1.0  0.50023979(0)  0.38394786(0)  0.23494042(0)
 C  C 1.0  0.00020769(0)  0.17591935(0)  0.15082640(0)
 C  C 1.0  0.00000091(0)  0.79535510(0)  0.09920165(0)
 C  C 1.0  0.02448808(0)  0.75013719(0)  0.77402958(0)
 C  C 1.0  0.61663463(0)  0.17506529(0)  0.50009106(0)
 C  C 1.0  0.34916607(0)  0.32404075(0)  -0.00019156(0)
 C  C 1.0  0.26507289(0)  0.88394595(0)  0.49973250(0)
 C  C 1.0  0.79534160(0)  0.09920357(0)  0.00000163(0)
 C  C 1.0  0.72599931(0)  0.47550694(0)  0.24985141(0)
 C  C 1.0  0.49990016(0)  0.32493892(0)  0.88336448(0)
 C  C 1.0  0.43743938(0)  0.49999026(0)  0.79563899(0)
 C  C 1.0  0.67505223(0)  0.88336463(0)  0.50009458(0)
 C  C 1.0  0.93743751(0)  0.49998881(0)  0.70435376(0)
 C  C 1.0  0.26363591(0)  0.65013381(0)  -0.00013221(0)
 C  C 1.0  0.20434741(0)  0.49999843(0)  0.56256790(0)
 C  C 1.0  0.38395766(0)  0.50026396(0)  0.76505080(0)
 C  C 1.0  0.06256295(0)  0.79564811(0)  -0.00002168(0)
 C  C 1.0  0.16728311(0)  0.49964805(0)  0.29330839(0)
 C  C 1.0  0.84989517(0)  0.76363546(0)  0.00014870(0)
 C  C 1.0  0.82493949(0)  0.49991335(0)  0.61663793(0)
 C  C 1.0  0.73637155(0)  0.49982582(0)  0.15011352(0)
 C  C 1.0  0.75015690(0)  0.02451217(0)  0.77400288(0)
 C  C 1.0  0.67594419(0)  0.65083775(0)  -0.00020654(0)
 C  C 1.0  0.00034189(0)  0.16728465(0)  0.79330856(0)
 C  C 1.0  0.65083465(0)  0.49978666(0)  0.17594096(0)
 C  C 1.0  0.84917277(0)  0.50020523(0)  0.67594549(0)
 C  C 1.0  0.49984037(0)  0.23636559(0)  0.65011906(0)
 C  C 1.0  0.70435361(0)  0.56256308(0)  -0.00001073(0)
 C  C 1.0  0.49985312(0)  0.34988963(0)  0.76362757(0)
 C  C 1.0  0.65084322(0)  -0.00020403(0)  0.32404859(0)
 C  C 1.0  0.67594296(0)  0.50020696(0)  0.84916751(0)
 C  C 1.0  0.50001712(0)  0.70435651(0)  0.93743376(0)
 C  C 1.0  0.00001452(0)  0.43743551(0)  0.29564621(0)
 C  C 1.0  0.84917218(0)  0.17593577(0)  -0.00021006(0)
 C  C 1.0  0.00034100(0)  0.29329447(0)  0.33270958(0)
 C  C 1.0  0.20435952(0)  0.56256782(0)  0.50002598(0)
 C  C 1.0  0.79564214(0)  0.56256973(0)  0.49999322(0)
 C  C 1.0  0.49983383(0)  0.73637593(0)  0.15010559(0)
 C  C 1.0  0.74986037(0)  0.52449140(0)  0.77400591(0)
 C  C 1.0  0.20434927(0)  0.06256700(0)  -0.00000223(0)
 C  C 1.0  0.00028205(0)  0.76507870(0)  0.11605072(0)
 C  C 1.0  0.49972978(0)  0.73494380(0)  0.11604168(0)
 C  C 1.0  0.27400040(0)  0.02448117(0)  0.74985260(0)
 C  C 1.0  0.50000453(0)  0.06255931(0)  0.70435437(0)
 C  C 1.0  0.50036671(0)  0.83270914(0)  0.29331492(0)
 C  C 1.0  0.11663733(0)  0.32493368(0)  0.49989078(0)
 C  C 1.0  0.79534532(0)  0.90080077(0)  -0.00001968(0)
 C  C 1.0  0.00018086(0)  0.76365511(0)  0.15011384(0)
 C  C 1.0  0.34916020(0)  -0.00021274(0)  0.32405045(0)
 C  C 1.0  0.20668517(0)  0.83271776(0)  -0.00030174(0)
 C  C 1.0  0.22573365(0)  0.22574246(0)  0.00002152(0)
 C  C 1.0  0.00035306(0)  0.70670265(0)  0.33269813(0)
 C  C 1.0  0.20465589(0)  0.09920710(0)  -0.00000475(0)
 C  C 1.0  0.23493930(0)  0.38394881(0)  0.49974587(0)
 C  C 1.0  0.79534028(0)  0.50000512(0)  0.40079136(0)
 C  C 1.0  0.00019618(0)  0.17593955(0)  0.84917035(0)
 C  C 1.0  0.61661806(0)  0.82493748(0)  0.49990716(0)
 C  C 1.0  0.24985224(0)  0.27399850(0)  0.52451012(0)
 C  C 1.0  0.77428007(0)  -0.00000132(0)  0.22574370(0)
 C  C 1.0  0.17506427(0)  0.00008242(0)  0.88336646(0)
 C  C 1.0  0.00017864(0)  0.26363273(0)  0.65011947(0)
 C  C 1.0  0.61663600(0)  0.49990355(0)  0.17506296(0)
 C  C 1.0  0.34916761(0)  0.50019886(0)  0.17595700(0)
 C  C 1.0  0.50008364(0)  0.82493816(0)  0.61662619(0)
 C  C 1.0  0.27426457(0)  0.27424752(0)  0.00003539(0)
 C  C 1.0  0.50032923(0)  0.16728554(0)  0.29330354(0)
 C  C 1.0  0.06255924(0)  0.20435199(0)  -0.00001395(0)
 C  C 1.0  0.84988721(0)  0.49982731(0)  0.26362850(0)
 C  C 1.0  0.00000303(0)  0.93744226(0)  0.79565120(0)
 C  C 1.0  0.20669409(0)  0.50033115(0)  0.33271791(0)
 C  C 1.0  0.73637531(0)  0.34988643(0)  0.00015815(0)
 C  C 1.0  0.59921370(0)  0.29533700(0)  -0.00000436(0)
 C  C 1.0  0.49966550(0)  0.79329997(0)  0.33272555(0)
 C  C 1.0  0.11604940(0)  0.50025705(0)  0.26506570(0)
 C  C 1.0  0.24984895(0)  0.02448590(0)  0.77399693(0)
 C  C 1.0  0.32494537(0)  0.88336904(0)  0.50008674(0)
 C  C 1.0  0.38335965(0)  -0.00008618(0)  0.32493034(0)
 C  C 1.0  0.49974017(0)  0.61605343(0)  0.76506449(0)
 C  C 1.0  0.77400699(0)  0.25013978(0)  0.47550824(0)
 C  C 1.0  0.88337086(0)  0.17505887(0)  -0.00008769(0)
 C  C 1.0  0.70466335(0)  0.00000657(0)  0.40078812(0)
 C  C 1.0  0.00025844(0)  0.23493864(0)  0.88395131(0)
 C  C 1.0  0.79330509(0)  0.33271300(0)  0.50033213(0)
 C  C 1.0  0.20435368(0)  0.50000086(0)  0.43743919(0)
 C  C 1.0  0.22599023(0)  0.47550830(0)  0.25014760(0)
 C  C 1.0  0.72601262(0)  0.97552016(0)  0.25013632(0)
 C  C 1.0  0.93741325(0)  0.70435562(0)  0.50000075(0)
 C  C 1.0  0.25015328(0)  0.72600957(0)  0.02451338(0)
 C  C 1.0  0.73636913(0)  0.00019563(0)  0.65012394(0)
 C  C 1.0  0.97548543(0)  0.27399103(0)  0.25013426(0)
 C  C 1.0  0.00008599(0)  0.88337283(0)  0.82494310(0)
 C  C 1.0  0.97551795(0)  0.25016181(0)  0.72601146(0)
 C  C 1.0  0.82406654(0)  0.84917462(0)  0.00020077(0)
 C  C 1.0  0.00020440(0)  0.65083012(0)  0.67596210(0)
 C  C 1.0  0.33271360(0)  0.50033479(0)  0.20670909(0)
 C  C 1.0  0.72571332(0)  0.77424250(0)  0.49996488(0)
 C  C 1.0  0.79328407(0)  0.66728482(0)  0.49962702(0)
 C  C 1.0  0.50000057(0)  0.29564529(0)  0.06257010(0)
 C  C 1.0  0.00024402(0)  0.38395446(0)  0.73494340(0)
 C  C 1.0  0.83273934(0)  0.00031620(0)  0.20669000(0)
 C  C 1.0  0.00027520(0)  0.11605066(0)  0.76506309(0)
 C  C 1.0  0.09919975(0)  0.20466032(0)  0.00001110(0)
 C  C 1.0  0.65011351(0)  0.23637072(0)  0.49980733(0)
 C  C 1.0  0.26506117(0)  0.50026231(0)  0.11606322(0)
 C  C 1.0  0.76507772(0)  0.00027715(0)  0.11605345(0)
 C  C 1.0  0.40078846(0)  -0.00002083(0)  0.29533571(0)
 C  C 1.0  0.00000085(0)  0.79565256(0)  0.93744559(0)
 C  C 1.0  0.50027706(0)  0.61605409(0)  0.23493117(0)
 C  C 1.0  0.00000399(0)  0.20434092(0)  0.06255757(0)
 C  C 1.0  0.83271354(0)  0.50033141(0)  0.29330269(0)
 C  C 1.0  0.79330523(0)  0.49964909(0)  0.33271488(0)
 C  C 1.0  0.50015790(0)  0.34988429(0)  0.23637268(0)
 C  C 1.0  0.32405962(0)  -0.00020748(0)  0.65083264(0)
 C  C 1.0  0.15083021(0)  -0.00020421(0)  0.82405987(0)
 C  C 1.0  0.15082468(0)  0.50021361(0)  0.67594457(0)
 C  C 1.0  0.32406380(0)  0.50020454(0)  0.84914837(0)
 C  C 1.0  0.24984266(0)  0.47552296(0)  0.72599863(0)
 C  C 1.0  0.06256722(0)  0.50001907(0)  0.29564950(0)
 C  C 1.0  0.50000802(0)  0.70466463(0)  0.09920086(0)
 C  C 1.0  0.61664013(0)  0.32493331(0)  0.00009787(0)
 C  C 1.0  0.09921013(0)  0.29533779(0)  0.50001986(0)
 C  C 1.0  0.72600040(0)  0.25014225(0)  0.02446131(0)
 C  C 1.0  0.40079552(0)  0.49999670(0)  0.20466854(0)
 C  C 1.0  0.00008341(0)  0.11661110(0)  0.17505823(0)
 C  C 1.0  0.79333069(0)  -0.00034472(0)  0.16728554(0)
 C  C 1.0  0.34916469(0)  0.17593941(0)  0.50020829(0)
 C  C 1.0  0.25014159(0)  0.47550624(0)  0.22600321(0)
 C  C 1.0  0.79564583(0)  0.43743661(0)  0.49999124(0)
 C  C 1.0  0.00022016(0)  0.34915808(0)  0.32405034(0)
 C  C 1.0  0.00011424(0)  0.34988398(0)  0.26362418(0)
 C  C 1.0  0.43744397(0)  0.70436261(0)  -0.00000171(0)
 C  C 1.0  0.50022063(0)  0.65083586(0)  0.82405892(0)
 C  C 1.0  0.65081545(0)  0.82405887(0)  0.49980209(0)
 C  C 1.0  0.15082471(0)  0.17593986(0)  0.00018087(0)
 C  C 1.0  0.22601190(0)  0.74985394(0)  0.52450993(0)
 C  C 1.0  0.49991873(0)  0.88336673(0)  0.67505783(0)
 C  C 1.0  0.73637083(0)  0.49983988(0)  0.84988727(0)
 C  C 1.0  0.29565063(0)  0.00000883(0)  0.56256115(0)
 C  C 1.0  0.29564381(0)  -0.00002744(0)  0.43743105(0)
 C  C 1.0  0.20669772(0)  0.33271360(0)  0.50033533(0)
 C  C 1.0  0.20668688(0)  0.16728508(0)  -0.00031269(0)
 C  C 1.0  0.26362842(0)  0.50014538(0)  0.15012688(0)
 C  C 1.0  0.50010201(0)  0.11663429(0)  0.32493513(0)
 C  C 1.0  0.49981221(0)  0.67594540(0)  0.84916718(0)
 C  C 1.0  0.32405884(0)  0.34914935(0)  0.00021865(0)
 C  C 1.0  0.27425409(0)  0.22573355(0)  0.50003320(0)
 C  C 1.0  0.49973683(0)  0.23493301(0)  0.61605475(0)
 C  C 1.0  0.32405580(0)  0.15083074(0)  0.49980473(0)
 C  C 1.0  0.20467166(0)  0.59920751(0)  0.49999873(0)
 C  C 1.0  0.70669646(0)  0.50035420(0)  0.83271481(0)
 C  C 1.0  0.77425057(0)  0.22572902(0)  -0.00002922(0)
 C  C 1.0  0.76363030(0)  0.50015597(0)  0.34988510(0)
 C  C 1.0  0.29329697(0)  0.00034870(0)  0.33270904(0)
 C  C 1.0  0.90079544(0)  0.20465709(0)  -0.00002807(0)
 C  C 1.0  0.61604981(0)  0.23493805(0)  0.49971806(0)
 C  C 1.0  0.27399935(0)  0.24984996(0)  0.52451160(0)
 C  C 1.0  0.61603208(0)  0.76505571(0)  0.50024663(0)
 C  C 1.0  0.50026512(0)  0.76505710(0)  0.38396373(0)
 C  C 1.0  0.88395018(0)  0.00027359(0)  0.76506399(0)
 C  C 1.0  0.70466150(0)  0.09920925(0)  0.49999889(0)
 C  C 1.0  0.26505999(0)  0.38393477(0)  -0.00025256(0)
 C  C 1.0  0.00007949(0)  0.82494346(0)  0.88337928(0)
 C  C 1.0  0.72574932(0)  0.27426404(0)  -0.00001356(0)
 C  C 1.0  0.24985310(0)  0.52446693(0)  0.27400782(0)
 C  C 1.0  0.75016289(0)  0.22600921(0)  0.02447718(0)
 C  C 1.0  0.17505641(0)  0.49991209(0)  0.61663617(0)
 C  C 1.0  0.25014084(0)  0.97552145(0)  0.72599467(0)
 C  C 1.0  0.50019674(0)  0.17593843(0)  0.65083659(0)
 C  C 1.0  0.00009548(0)  0.67506914(0)  0.38334330(0)
 C  C 1.0  0.70464938(0)  0.90078762(0)  0.49999964(0)
 C  C 1.0  0.17594138(0)  0.50020357(0)  0.34917115(0)
 C  C 1.0  0.00030234(0)  0.79333405(0)  0.16728229(0)
 C  C 1.0  0.23634570(0)  0.00016450(0)  0.15012287(0)
 C  C 1.0  0.72574126(0)  0.22573847(0)  0.49998787(0)
 C  C 1.0  0.49974710(0)  0.38395389(0)  0.76505960(0)
 C  C 1.0  0.47553466(0)  0.77399521(0)  0.74983829(0)
 C  C 1.0  0.34988950(0)  0.26361624(0)  0.00019601(0)
 C  C 1.0  0.06254983(0)  0.00001977(0)  0.20435535(0)
 C  C 1.0  0.00009180(0)  0.32492697(0)  0.38335978(0)
 C  C 1.0  0.23636166(0)  0.84988738(0)  0.00018599(0)
 C  C 1.0  0.00001158(0)  0.77427467(0)  0.22573813(0)
 C  C 1.0  0.67595227(0)  0.00021665(0)  0.34915833(0)
 C  C 1.0  0.59920649(0)  0.70466309(0)  -0.00000099(0)
 C  C 1.0  0.24987225(0)  0.72599212(0)  0.47555194(0)
 C  C 1.0  0.76363051(0)  0.34988390(0)  0.49981633(0)
 C  C 1.0  0.70435321(0)  0.00001415(0)  0.43743473(0)
 C  C 1.0  0.73492443(0)  0.88394041(0)  0.49970363(0)
 C  C 1.0  0.16729937(0)  0.70669669(0)  0.50035625(0)
 C  C 1.0  0.49997813(0)  0.22573662(0)  0.27425654(0)
 C  C 1.0  0.11606909(0)  0.73493587(0)  0.49976811(0)
 C  C 1.0  0.67506599(0)  0.50009676(0)  0.11663440(0)
 C  C 1.0  0.22599253(0)  0.02446923(0)  0.24984976(0)
 C  C 1.0  0.15013376(0)  0.73637259(0)  0.49986626(0)
 C  C 1.0  0.65083383(0)  0.17594293(0)  0.50019884(0)
 C  C 1.0  0.97554399(0)  0.74985319(0)  0.72600579(0)
 C  C 1.0  0.00034011(0)  0.20669346(0)  0.83271529(0)
 C  C 1.0  0.40079591(0)  0.00000825(0)  0.70466275(0)
 C  C 1.0  0.06256430(0)  0.00000892(0)  0.79565110(0)
 C  C 1.0  0.38336492(0)  0.32492387(0)  -0.00009166(0)
 C  C 1.0  0.22575942(0)  0.72573128(0)  0.50003498(0)
 C  C 1.0  0.67594257(0)  -0.00020523(0)  0.65084209(0)
 C  C 1.0  0.23636312(0)  0.15011477(0)  0.00019006(0)
 C  C 1.0  0.47549290(0)  0.27399465(0)  0.24984774(0)
 C  C 1.0  0.22571828(0)  -0.00002591(0)  0.22575174(0)
 C  C 1.0  0.50000745(0)  0.56256463(0)  0.20434868(0)
 C  C 1.0  0.00020185(0)  0.84919534(0)  0.17592897(0)
 C  C 1.0  0.56255784(0)  0.79564695(0)  0.50000401(0)
 C  C 1.0  0.56257223(0)  0.29564676(0)  -0.00001042(0)
 C  C 1.0  0.11663319(0)  0.49990672(0)  0.32494050(0)
 C  C 1.0  0.00016570(0)  0.23636845(0)  0.84988832(0)
 C  C 1.0  0.20466133(0)  0.49998595(0)  0.40079656(0)
 C  C 1.0  0.40078938(0)  0.20465856(0)  0.50002597(0)
 C  C 1.0  0.84917219(0)  -0.00020337(0)  0.82406440(0)
 C  C 1.0  0.50016737(0)  0.65011849(0)  0.23636380(0)
 C  C 1.0  0.02450523(0)  0.27399010(0)  0.74984840(0)
 C  C 1.0  0.49963439(0)  0.66728814(0)  0.20668979(0)
 C  C 1.0  0.76506220(0)  0.11604659(0)  -0.00026891(0)
 C  C 1.0  0.40080193(0)  0.70467285(0)  -0.00000062(0)
 C  C 1.0  0.49966411(0)  0.16727941(0)  0.70670031(0)
 C  C 1.0  0.82494272(0)  0.00010426(0)  0.88337191(0)
 C  C 1.0  0.02450144(0)  0.24984214(0)  0.77399690(0)
 C  C 1.0  0.24984965(0)  0.22599515(0)  0.97554369(0)
 C  C 1.0  0.72600081(0)  0.47553405(0)  0.75014430(0)
 C  C 1.0  0.38336375(0)  0.17506263(0)  0.50008550(0)
 C  C 1.0  0.38396474(0)  0.76506146(0)  0.50030117(0)
 C  C 1.0  0.09917886(0)  0.00000111(0)  0.20466479(0)
 C  C 1.0  0.83269703(0)  0.70669840(0)  0.50033211(0)
 C  C 1.0  0.65011537(0)  0.50016117(0)  0.23637002(0)
 C  C 1.0  0.93743637(0)  0.29564677(0)  0.49997361(0)
 C  C 1.0  0.84917624(0)  0.82406511(0)  -0.00020120(0)
 C  C 1.0  0.29534852(0)  0.59923507(0)  0.00000960(0)
 C  C 1.0  0.00008592(0)  0.32493808(0)  0.61663934(0)
 C  C 1.0  0.70669678(0)  0.66728899(0)  -0.00037972(0)
 C  C 1.0  0.77426038(0)  0.77426515(0)  -0.00002883(0)
 C  C 1.0  0.26362802(0)  0.34987120(0)  -0.00013250(0)
 C  C 1.0  0.47552080(0)  0.72598981(0)  0.24986125(0)
 C  C 1.0  0.00003673(0)  0.27425416(0)  0.27425423(0)
 C  C 1.0  0.02450322(0)  0.77400279(0)  0.24983864(0)
 C  C 1.0  0.00037992(0)  0.33270997(0)  0.29329631(0)
 C  C 1.0  0.00001154(0)  0.43743531(0)  0.70435567(0)
 C  C 1.0  0.17505814(0)  0.11663228(0)  -0.00009697(0)
 C  C 1.0  0.52452426(0)  0.75016134(0)  0.72601161(0)
 C  C 1.0  0.29533633(0)  0.09920551(0)  0.50000314(0)
 C  C 1.0  0.00034202(0)  0.83271587(0)  0.79331854(0)
 C  C 1.0  0.29565268(0)  0.93743610(0)  0.49999405(0)
 C  C 1.0  0.74985251(0)  0.52447457(0)  0.22599976(0)
 C  C 1.0  0.49999429(0)  0.09920718(0)  0.29533817(0)
 C  C 1.0  0.00001195(0)  0.72572269(0)  0.72576490(0)
 C  C 1.0  0.11665169(0)  0.67506699(0)  0.50010204(0)
 C  C 1.0  0.50000237(0)  0.77425143(0)  0.27427016(0)
 C  C 1.0  0.38395292(0)  0.49972216(0)  0.23494571(0)
 C  C 1.0  0.79534490(0)  -0.00000492(0)  0.90079939(0)
 C  C 1.0  0.20435431(0)  0.00001775(0)  0.93743543(0)
 C  C 1.0  0.00031711(0)  0.16726488(0)  0.20669325(0)
 C  C 1.0  0.23495239(0)  0.61604519(0)  0.50028214(0)
 C  C 1.0  0.00000361(0)  0.56257332(0)  0.29563622(0)
 C  C 1.0  0.56256611(0)  -0.00000860(0)  0.70435401(0)
 C  C 1.0  0.76363408(0)  0.15010976(0)  -0.00019451(0)
 C  C 1.0  0.50000276(0)  0.40078979(0)  0.20466196(0)
 C  C 1.0  0.00032937(0)  0.79331026(0)  0.83272676(0)
 C  C 1.0  0.17505643(0)  0.88337080(0)  -0.00009269(0)
 C  C 1.0  0.26506498(0)  0.00027338(0)  0.61604730(0)
 C  C 1.0  0.00000541(0)  0.90079853(0)  0.79534630(0)
 C  C 1.0  0.00034224(0)  0.83273762(0)  0.20668600(0)
 C  C 1.0  0.67506477(0)  0.50009408(0)  0.88336697(0)
 C  C 1.0  0.72599876(0)  0.74985967(0)  0.02444980(0)
 C  C 1.0  0.00025598(0)  0.26505583(0)  0.38394938(0)
 C  C 1.0  0.77400232(0)  0.75015639(0)  0.97548582(0)
 C  C 1.0  0.17595932(0)  0.65083682(0)  0.49979563(0)
 C  C 1.0  0.61663438(0)  0.49991629(0)  0.82493534(0)
 C  C 1.0  0.00019060(0)  0.84988623(0)  0.76364265(0)
 C  C 1.0  0.88395182(0)  0.23493536(0)  0.00025680(0)
 C  C 1.0  0.27401567(0)  0.75014373(0)  0.47554681(0)
 C  C 1.0  0.88395879(0)  0.49974119(0)  0.73494294(0)
 C  C 1.0  0.29534274(0)  0.00000282(0)  0.59920550(0)
 Cu  Cu 1.0  0.73458795(0)  -0.00000436(0)  0.50000451(0)
 Cu  Cu 1.0  0.26541283(0)  -0.00000418(0)  0.49999613(0)
 Cu  Cu 1.0  0.49999829(0)  0.17375336(0)  0.49999195(0)
 Cu  Cu 1.0  0.50001139(0)  0.49999674(0)  0.23458895(0)
 Cu  Cu 1.0  0.32624885(0)  0.00000213(0)  0.49999496(0)
 Cu  Cu 1.0  0.50000861(0)  0.49999424(0)  0.17375171(0)
 Cu  Cu 1.0  0.82624222(0)  0.00000481(0)  -0.00000940(0)
 Cu  Cu 1.0  0.49999284(0)  0.00000833(0)  0.26541330(0)
 Cu  Cu 1.0  0.23458804(0)  0.50000333(0)  0.50000543(0)
 Cu  Cu 1.0  0.76541210(0)  0.50001121(0)  0.50000279(0)
 Cu  Cu 1.0  0.82624882(0)  0.50001112(0)  0.50000114(0)
 Cu  Cu 1.0  0.67375040(0)  0.00000261(0)  0.50000439(0)
 Cu  Cu 1.0  0.73458789(0)  0.49999193(0)  0.00000968(0)
 Cu  Cu 1.0  0.26542725(0)  0.50000367(0)  -0.00000985(0)
 Cu  Cu 1.0  0.00000407(0)  0.32624864(0)  0.50000674(0)
 Cu  Cu 1.0  0.00000557(0)  0.50000607(0)  0.26541601(0)
 Cu  Cu 1.0  0.50000429(0)  0.67375683(0)  -0.00000538(0)
 Cu  Cu 1.0  0.49999828(0)  0.76542330(0)  0.50000979(0)
 Cu  Cu 1.0  0.50000298(0)  0.82623381(0)  0.50000724(0)
 Cu  Cu 1.0  -0.00000269(0)  0.17375338(0)  -0.00000856(0)
 Cu  Cu 1.0  0.32620727(0)  0.49999770(0)  -0.00000628(0)
 Cu  Cu 1.0  0.00000189(0)  0.76542333(0)  0.00000488(0)
 Cu  Cu 1.0  0.00000382(0)  0.26541301(0)  0.50001147(0)
 Cu  Cu 1.0  0.67375252(0)  0.49999309(0)  0.00000764(0)
 Cu  Cu 1.0  -0.00000491(0)  0.67374741(0)  0.49999282(0)
 Cu  Cu 1.0  0.50000693(0)  0.26541104(0)  0.00000448(0)
 Cu  Cu 1.0  0.50000801(0)  -0.00001164(0)  0.73458481(0)
 Cu  Cu 1.0  0.50000558(0)  0.73458571(0)  -0.00000598(0)
 Cu  Cu 1.0  0.49999756(0)  0.23458752(0)  0.49998995(0)
 Cu  Cu 1.0  0.17375074(0)  0.00000603(0)  0.00000093(0)
 Cu  Cu 1.0  0.49999696(0)  0.50000751(0)  0.82624528(0)
 Cu  Cu 1.0  -0.00000776(0)  0.49999248(0)  0.73458436(0)
 Cu  Cu 1.0  -0.00000679(0)  -0.00000879(0)  0.23456414(0)
 Cu  Cu 1.0  0.76541935(0)  0.00000392(0)  -0.00000918(0)
 Cu  Cu 1.0  -0.00000433(0)  0.73459409(0)  0.49999247(0)
 Cu  Cu 1.0  -0.00000393(0)  0.23458470(0)  -0.00000525(0)
 Cu  Cu 1.0  0.17375160(0)  0.50000640(0)  0.50000297(0)
 Cu  Cu 1.0  0.00000339(0)  0.00000807(0)  0.82624337(0)
 Cu  Cu 1.0  -0.00000562(0)  0.49999725(0)  0.67375698(0)
 Cu  Cu 1.0  0.00000237(0)  -0.00000538(0)  0.17377731(0)
 Cu  Cu 1.0  0.00000128(0)  0.82623760(0)  0.00000092(0)
 Cu  Cu 1.0  0.23458562(0)  0.00000619(0)  0.00000864(0)
 Cu  Cu 1.0  0.49999625(0)  0.00000856(0)  0.32624789(0)
 Cu  Cu 1.0  0.00000578(0)  0.00000965(0)  0.76541461(0)
 Cu  Cu 1.0  0.50000503(0)  0.32624578(0)  0.00000510(0)
 Cu  Cu 1.0  0.00000249(0)  0.50000937(0)  0.32623920(0)
 Cu  Cu 1.0  0.50000575(0)  -0.00000745(0)  0.67375364(0)
 Cu  Cu 1.0  0.49999526(0)  0.50001108(0)  0.76541103(0)
 H  H 1.0  0.15195092(0)  0.49999554(0)  0.39673666(0)
 H  H 1.0  0.89831111(0)  0.75741164(0)  0.49932725(0)
 H  H 1.0  0.24016319(0)  0.49934366(0)  0.83713621(0)
 H  H 1.0  0.89832557(0)  0.24258112(0)  0.50061753(0)
 H  H 1.0  0.75081895(0)  0.45616527(0)  0.29242211(0)
 H  H 1.0  0.50069863(0)  0.24016135(0)  0.83715558(0)
 H  H 1.0  0.25739984(0)  0.00063204(0)  0.10169037(0)
 H  H 1.0  0.20757705(0)  0.04381711(0)  0.24917352(0)
 H  H 1.0  0.20758632(0)  0.54384494(0)  0.74917428(0)
 H  H 1.0  0.34805524(0)  0.60328204(0)  -0.00002993(0)
 H  H 1.0  0.24919926(0)  0.70756650(0)  0.45621426(0)
 H  H 1.0  0.75082977(0)  0.20758128(0)  0.04381349(0)
 H  H 1.0  0.89832378(0)  0.74257994(0)  0.00060412(0)
 H  H 1.0  0.29244534(0)  0.75081149(0)  0.45621246(0)
 H  H 1.0  0.33715687(0)  0.00064246(0)  0.24014956(0)
 H  H 1.0  0.24258520(0)  0.00065511(0)  0.60167520(0)
 H  H 1.0  0.60167344(0)  -0.00062316(0)  0.75742553(0)
 H  H 1.0  0.49933773(0)  0.25983758(0)  0.66284885(0)
 H  H 1.0  0.00065522(0)  0.66284114(0)  0.24013427(0)
 H  H 1.0  0.79240256(0)  0.74917638(0)  0.54378226(0)
 H  H 1.0  0.25983969(0)  -0.00066327(0)  0.83715353(0)
 H  H 1.0  0.74916274(0)  0.95619191(0)  0.70759265(0)
 H  H 1.0  0.65193987(0)  0.89673425(0)  0.50001696(0)
 H  H 1.0  0.83715302(0)  0.00070369(0)  0.74016553(0)
 H  H 1.0  0.24259110(0)  0.89831556(0)  0.49936171(0)
 H  H 1.0  0.45617727(0)  0.79240009(0)  0.74914721(0)
 H  H 1.0  0.75984352(0)  0.66284733(0)  0.00061957(0)
 H  H 1.0  0.83718656(0)  -0.00070197(0)  0.25983613(0)
 H  H 1.0  0.75084192(0)  0.95617259(0)  0.20757558(0)
 H  H 1.0  0.70758437(0)  0.04385524(0)  0.74918706(0)
 H  H 1.0  0.60168065(0)  0.00062350(0)  0.24257530(0)
 H  H 1.0  0.34805386(0)  0.49997939(0)  0.89671807(0)
 H  H 1.0  0.25743067(0)  0.60167150(0)  0.50067684(0)
 H  H 1.0  0.24015173(0)  -0.00069247(0)  0.33715315(0)
 H  H 1.0  0.60325829(0)  0.84805528(0)  0.50003604(0)
 H  H 1.0  0.34804981(0)  0.39671956(0)  -0.00001784(0)
 H  H 1.0  0.60168214(0)  0.24257876(0)  -0.00064605(0)
 H  H 1.0  0.84805786(0)  0.89673783(0)  0.00000001(0)
 H  H 1.0  0.89832038(0)  0.25741809(0)  0.00060155(0)
 H  H 1.0  0.45614323(0)  0.24916606(0)  0.29240867(0)
 H  H 1.0  0.66284642(0)  0.50069205(0)  0.74015839(0)
 H  H 1.0  0.49999212(0)  0.84805633(0)  0.60326697(0)
 H  H 1.0  0.16283648(0)  0.74016095(0)  -0.00061349(0)
 H  H 1.0  0.20756774(0)  0.45616727(0)  0.25081833(0)
 H  H 1.0  0.39672968(0)  0.49998848(0)  0.15195867(0)
 H  H 1.0  0.10166503(0)  -0.00066397(0)  0.25743456(0)
 H  H 1.0  0.39831951(0)  0.25741495(0)  0.49939464(0)
 H  H 1.0  0.66283842(0)  0.75984722(0)  -0.00072923(0)
 H  H 1.0  0.74915529(0)  0.79242100(0)  0.54377882(0)
 H  H 1.0  0.24257826(0)  0.10167584(0)  0.50068770(0)
 H  H 1.0  0.00068491(0)  0.24014935(0)  0.33715547(0)
 H  H 1.0  0.25741938(0)  -0.00063270(0)  0.89832143(0)
 H  H 1.0  0.00066366(0)  0.10166278(0)  0.25742734(0)
 H  H 1.0  0.39672265(0)  0.00002134(0)  0.34804638(0)
 H  H 1.0  0.39673909(0)  0.84805787(0)  0.49999986(0)
 H  H 1.0  0.50064509(0)  0.25984083(0)  0.33715347(0)
 H  H 1.0  0.75081483(0)  0.29242989(0)  0.54380210(0)
 H  H 1.0  0.16283726(0)  0.00068649(0)  0.74015932(0)
 H  H 1.0  0.10167690(0)  0.50063509(0)  0.24258608(0)
 H  H 1.0  0.39672989(0)  0.50000892(0)  0.84804185(0)
 H  H 1.0  0.50066065(0)  0.89831510(0)  0.75741419(0)
 H  H 1.0  0.54381422(0)  0.79242659(0)  0.25081756(0)
 H  H 1.0  0.34804514(0)  -0.00000720(0)  0.39672287(0)
 H  H 1.0  0.75742158(0)  0.39832257(0)  0.00062004(0)
 H  H 1.0  0.75081104(0)  0.70757287(0)  0.45613220(0)
 H  H 1.0  0.25741454(0)  0.10168211(0)  0.00067725(0)
 H  H 1.0  0.33715219(0)  0.25983963(0)  0.49936633(0)
 H  H 1.0  0.50060893(0)  0.39831999(0)  0.25742043(0)
 H  H 1.0  0.33717043(0)  0.74016165(0)  0.50073607(0)
 H  H 1.0  0.54387065(0)  0.75083547(0)  0.70759475(0)
 H  H 1.0  0.00065126(0)  0.75985099(0)  0.33713945(0)
 H  H 1.0  0.15193420(0)  0.00000955(0)  0.10326029(0)
 H  H 1.0  0.20759092(0)  0.74917655(0)  0.54385214(0)
 H  H 1.0  0.89673624(0)  0.15194424(0)  0.00000930(0)
 H  H 1.0  0.79242312(0)  0.54381530(0)  0.25082001(0)
 H  H 1.0  0.10167526(0)  0.00065193(0)  0.74258318(0)
 H  H 1.0  0.24258464(0)  0.50061913(0)  0.10168393(0)
 H  H 1.0  0.74016347(0)  -0.00066681(0)  0.83716483(0)
 H  H 1.0  0.34804981(0)  0.50001712(0)  0.10327725(0)
 H  H 1.0  0.39832409(0)  -0.00062952(0)  0.75741957(0)
 H  H 1.0  0.00062107(0)  0.25981698(0)  0.16284780(0)
 H  H 1.0  0.74917830(0)  0.54381601(0)  0.20757760(0)
 H  H 1.0  0.20756564(0)  0.95618433(0)  0.75080815(0)
 H  H 1.0  0.25741797(0)  0.49933261(0)  0.39832521(0)
 H  H 1.0  0.84805990(0)  -0.00002045(0)  0.89673263(0)
 H  H 1.0  0.04378306(0)  0.20755691(0)  0.24919287(0)
 H  H 1.0  0.89673590(0)  0.84805840(0)  0.00002680(0)
 H  H 1.0  0.50000702(0)  0.89673205(0)  0.65194318(0)
 H  H 1.0  0.00068270(0)  0.75983843(0)  0.66286573(0)
 H  H 1.0  0.49938705(0)  0.60168249(0)  0.74258352(0)
 H  H 1.0  0.33715971(0)  0.49930654(0)  0.25985283(0)
 H  H 1.0  0.75741648(0)  0.00066259(0)  0.60168598(0)
 H  H 1.0  0.00001133(0)  0.65195381(0)  0.60327803(0)
 H  H 1.0  0.25983167(0)  0.83715548(0)  0.00070949(0)
 H  H 1.0  0.66284450(0)  0.25984167(0)  0.49929224(0)
 H  H 1.0  0.34804879(0)  0.10326786(0)  0.50000207(0)
 H  H 1.0  0.10168450(0)  0.75740863(0)  0.49939593(0)
 H  H 1.0  0.49997877(0)  0.39673230(0)  0.84804860(0)
 H  H 1.0  0.74919121(0)  0.54382919(0)  0.79243178(0)
 H  H 1.0  0.25081322(0)  0.45617048(0)  0.20757542(0)
 H  H 1.0  0.25083636(0)  0.54383922(0)  0.79241249(0)
 H  H 1.0  0.95621569(0)  0.74918744(0)  0.70756988(0)
 H  H 1.0  0.83716382(0)  0.74016414(0)  0.00063184(0)
 H  H 1.0  0.33716615(0)  0.50068366(0)  0.74014340(0)
 H  H 1.0  0.60167583(0)  0.25741670(0)  0.49932955(0)
 H  H 1.0  0.75082135(0)  0.45619525(0)  0.70757184(0)
 H  H 1.0  0.00064645(0)  0.10168225(0)  0.74258090(0)
 H  H 1.0  0.20757400(0)  0.25081788(0)  0.45620562(0)
 H  H 1.0  0.00061465(0)  0.25742143(0)  0.89831942(0)
 H  H 1.0  0.84806393(0)  0.00001780(0)  0.10325545(0)
 H  H 1.0  0.83715632(0)  0.49932298(0)  0.24015724(0)
 H  H 1.0  0.25983238(0)  0.16284769(0)  0.00072528(0)
 H  H 1.0  0.10326281(0)  0.15194703(0)  -0.00002837(0)
 H  H 1.0  0.10326862(0)  0.50002173(0)  0.34805572(0)
 H  H 1.0  0.75741866(0)  -0.00064815(0)  0.39832537(0)
 H  H 1.0  0.24258777(0)  0.49937107(0)  0.89830964(0)
 H  H 1.0  0.49937208(0)  0.74257489(0)  0.60167575(0)
 H  H 1.0  0.00062521(0)  0.74258294(0)  0.89833269(0)
 H  H 1.0  0.75740539(0)  0.89831107(0)  0.49931289(0)
 H  H 1.0  0.24917201(0)  0.79243459(0)  0.95620645(0)
 H  H 1.0  0.50064028(0)  0.74257446(0)  0.39833167(0)
 H  H 1.0  0.49936702(0)  0.25741085(0)  0.60167846(0)
 H  H 1.0  0.00002744(0)  0.39672193(0)  0.34804686(0)
 H  H 1.0  0.10168010(0)  0.24258064(0)  0.50067976(0)
 H  H 1.0  0.39833092(0)  0.74257823(0)  0.50069257(0)
 H  H 1.0  0.50064452(0)  0.10167002(0)  0.75742142(0)
 H  H 1.0  0.74016533(0)  0.50069382(0)  0.66285064(0)
 H  H 1.0  0.33715639(0)  -0.00065634(0)  0.75984226(0)
 H  H 1.0  0.00001451(0)  0.39672990(0)  0.65195121(0)
 H  H 1.0  0.95616691(0)  0.70760891(0)  0.25081603(0)
 H  H 1.0  0.24915460(0)  0.95614515(0)  0.20758517(0)
 H  H 1.0  0.54380428(0)  0.74919297(0)  0.20756318(0)
 H  H 1.0  0.50000547(0)  0.65195127(0)  0.89672835(0)
 H  H 1.0  0.75741723(0)  0.49937155(0)  0.89832527(0)
 H  H 1.0  0.00060805(0)  0.60166144(0)  0.75743433(0)
 H  H 1.0  0.00000213(0)  0.10325745(0)  0.15193676(0)
 H  H 1.0  0.50070353(0)  0.75984516(0)  0.83715673(0)
 H  H 1.0  0.00000317(0)  0.89673999(0)  0.84805682(0)
 H  H 1.0  0.24257730(0)  -0.00065835(0)  0.39832025(0)
 H  H 1.0  0.60167465(0)  0.75742300(0)  -0.00067856(0)
 H  H 1.0  0.84805356(0)  0.50000885(0)  0.60327128(0)
 H  H 1.0  0.54386766(0)  0.70759593(0)  0.75083829(0)
 H  H 1.0  0.50061960(0)  0.25741748(0)  0.39831882(0)
 H  H 1.0  0.34805885(0)  0.89673639(0)  0.49997816(0)
 H  H 1.0  0.24916555(0)  0.45618339(0)  0.70757487(0)
 H  H 1.0  0.00000097(0)  0.89674702(0)  0.15193153(0)
 H  H 1.0  0.00064167(0)  0.74259302(0)  0.10168664(0)
 H  H 1.0  0.39832973(0)  0.50064703(0)  0.74257134(0)
 H  H 1.0  0.00062696(0)  0.60167682(0)  0.24256239(0)
 H  H 1.0  0.10167106(0)  0.49936316(0)  0.75742461(0)
 H  H 1.0  0.25983897(0)  0.49929396(0)  0.33715701(0)
 H  H 1.0  0.25082634(0)  0.04381348(0)  0.29241154(0)
 H  H 1.0  0.89673145(0)  0.34804922(0)  0.50000733(0)
 H  H 1.0  0.75985161(0)  -0.00067622(0)  0.33715885(0)
 H  H 1.0  0.74258586(0)  0.89832279(0)  -0.00068777(0)
 H  H 1.0  0.70756819(0)  0.75081504(0)  0.45612265(0)
 H  H 1.0  0.50000878(0)  0.84805222(0)  0.39673592(0)
 H  H 1.0  0.54381316(0)  0.20758239(0)  0.25083137(0)
 H  H 1.0  0.15194264(0)  0.50000485(0)  0.60326900(0)
 H  H 1.0  0.60326997(0)  0.50001069(0)  0.15194870(0)
 H  H 1.0  0.74016839(0)  0.83716028(0)  -0.00072875(0)
 H  H 1.0  0.84805072(0)  0.50002011(0)  0.39673222(0)
 H  H 1.0  0.39832879(0)  0.49935039(0)  0.25742348(0)
 H  H 1.0  0.00064869(0)  0.89831997(0)  0.74258927(0)
 H  H 1.0  0.39673113(0)  -0.00001829(0)  0.65195141(0)
 H  H 1.0  0.16283766(0)  0.49933954(0)  0.75984540(0)
 H  H 1.0  0.00064934(0)  0.89833013(0)  0.25742560(0)
 H  H 1.0  0.50000734(0)  0.10326619(0)  0.65195090(0)
 H  H 1.0  0.24017328(0)  0.83714898(0)  0.49934263(0)
 H  H 1.0  0.24015722(0)  0.33713965(0)  -0.00064398(0)
 H  H 1.0  0.49999973(0)  0.34804810(0)  0.10327145(0)
 H  H 1.0  0.16283829(0)  0.25983945(0)  -0.00063225(0)
 H  H 1.0  0.24917746(0)  0.04382365(0)  0.79242283(0)
 H  H 1.0  0.49932651(0)  0.83714880(0)  0.24016850(0)
 H  H 1.0  0.25740899(0)  0.50067552(0)  0.60168307(0)
 H  H 1.0  0.15194322(0)  0.89673868(0)  0.00000278(0)
 H  H 1.0  0.65195177(0)  0.39672611(0)  0.00002218(0)
 H  H 1.0  0.49929236(0)  0.16284452(0)  0.24015872(0)
 H  H 1.0  0.10327214(0)  0.34804844(0)  0.50001070(0)
 H  H 1.0  0.50066059(0)  0.24258809(0)  0.89832507(0)
 H  H 1.0  0.49935308(0)  0.89831780(0)  0.24259129(0)
 H  H 1.0  0.00001325(0)  0.60328536(0)  0.34803670(0)
 H  H 1.0  0.49934228(0)  0.10168039(0)  0.24257907(0)
 H  H 1.0  0.20758145(0)  0.24916920(0)  0.04386174(0)
 H  H 1.0  0.25083481(0)  0.79241971(0)  0.54385478(0)
 H  H 1.0  0.25083136(0)  0.70758532(0)  0.04385237(0)
 H  H 1.0  0.29243304(0)  0.54379797(0)  0.24919767(0)
 H  H 1.0  0.00067342(0)  0.24016039(0)  0.66284849(0)
 H  H 1.0  0.00001816(0)  0.84806179(0)  0.89673822(0)
 H  H 1.0  0.66283595(0)  -0.00063976(0)  0.75985115(0)
 H  H 1.0  0.79241891(0)  0.24917178(0)  0.95614770(0)
 H  H 1.0  0.74257971(0)  0.10167828(0)  -0.00064108(0)
 H  H 1.0  0.89832364(0)  0.49936102(0)  0.24257882(0)
 H  H 1.0  0.00000151(0)  0.34804241(0)  0.39672425(0)
 H  H 1.0  0.00001655(0)  0.15194605(0)  0.89673122(0)
 H  H 1.0  0.34805327(0)  0.00000892(0)  0.60326836(0)
 H  H 1.0  0.89673132(0)  0.49999119(0)  0.34805008(0)
 H  H 1.0  0.10327619(0)  0.65195766(0)  0.49997069(0)
 H  H 1.0  0.00070888(0)  0.16281840(0)  0.25983730(0)
 H  H 1.0  0.04385483(0)  0.24915768(0)  0.79240633(0)
 H  H 1.0  0.50063462(0)  0.33715347(0)  0.25984441(0)
 H  H 1.0  0.49997670(0)  0.15194779(0)  0.60326951(0)
 H  H 1.0  0.74258922(0)  0.50066408(0)  0.60168236(0)
 H  H 1.0  0.89833739(0)  -0.00066474(0)  0.25742386(0)
 H  H 1.0  0.83716664(0)  0.49934099(0)  0.75984699(0)
 H  H 1.0  0.10326630(0)  0.84805768(0)  -0.00002562(0)
 H  H 1.0  0.25983201(0)  0.50070770(0)  0.66285028(0)
 H  H 1.0  0.20758465(0)  0.75082111(0)  0.04386281(0)
 H  H 1.0  0.00064983(0)  0.25983946(0)  0.83715671(0)
 H  H 1.0  0.60167961(0)  0.50064936(0)  0.74257890(0)
 H  H 1.0  0.95617244(0)  0.25083964(0)  0.70759379(0)
 H  H 1.0  0.79243356(0)  0.25080887(0)  0.45617112(0)
 H  H 1.0  0.15195270(0)  0.39673056(0)  0.49997411(0)
 H  H 1.0  0.95616677(0)  0.20759631(0)  0.75083462(0)
 H  H 1.0  0.24258381(0)  0.39831409(0)  -0.00061734(0)
 H  H 1.0  0.04382381(0)  0.75080435(0)  0.79245817(0)
 H  H 1.0  0.00068781(0)  0.74018690(0)  0.16284959(0)
 H  H 1.0  0.00001700(0)  0.84807010(0)  0.10325482(0)
 H  H 1.0  0.75984199(0)  0.16284572(0)  0.50067137(0)
 H  H 1.0  0.24918432(0)  0.54379908(0)  0.29243975(0)
 H  H 1.0  0.24015922(0)  0.00068914(0)  0.66283963(0)
 H  H 1.0  0.00002117(0)  0.65195922(0)  0.39671782(0)
 H  H 1.0  0.29242070(0)  0.45618419(0)  0.75080872(0)
 H  H 1.0  0.84804897(0)  0.39673198(0)  0.49998564(0)
 H  H 1.0  0.83715713(0)  0.25983636(0)  0.00063336(0)
 H  H 1.0  0.24015683(0)  0.16284252(0)  0.50072807(0)
 H  H 1.0  0.00001244(0)  0.34805323(0)  0.60327466(0)
 H  H 1.0  0.24016397(0)  0.66286436(0)  -0.00061438(0)
 H  H 1.0  0.16284771(0)  0.24015775(0)  0.50073244(0)
 H  H 1.0  0.70757944(0)  0.45616348(0)  0.24917713(0)
 H  H 1.0  0.79243875(0)  0.54382729(0)  0.74919270(0)
 H  H 1.0  0.00060665(0)  0.25740011(0)  0.10168295(0)
 H  H 1.0  0.74256892(0)  0.60167323(0)  0.50060454(0)
 H  H 1.0  0.15195904(0)  0.60327768(0)  0.50000685(0)
 H  H 1.0  0.74919040(0)  0.20756462(0)  0.45617395(0)
 H  H 1.0  0.50065018(0)  0.60167954(0)  0.25740978(0)
 H  H 1.0  0.29242689(0)  0.74920295(0)  0.95620812(0)
 H  H 1.0  0.65195533(0)  -0.00000286(0)  0.39672365(0)
 H  H 1.0  0.65194968(0)  0.49999586(0)  0.89673200(0)
 H  H 1.0  0.00061614(0)  0.39832467(0)  0.75742437(0)
 H  H 1.0  0.49934149(0)  0.33716011(0)  0.74015561(0)
 H  H 1.0  0.10167435(0)  0.25741975(0)  -0.00061134(0)
 H  H 1.0  0.49998751(0)  0.65195201(0)  0.10326742(0)
 H  H 1.0  0.29240385(0)  0.95615043(0)  0.25081729(0)
 H  H 1.0  0.66284855(0)  0.00065131(0)  0.24014827(0)
 H  H 1.0  0.49998708(0)  0.10327080(0)  0.34805081(0)
 H  H 1.0  0.39673042(0)  0.15194858(0)  0.49998229(0)
 H  H 1.0  0.74920035(0)  0.04381282(0)  0.29242996(0)
 H  H 1.0  0.70756499(0)  0.24918988(0)  0.54379778(0)
 H  H 1.0  0.74016285(0)  0.16284086(0)  -0.00068312(0)
 H  H 1.0  0.00063275(0)  0.75739881(0)  0.60168601(0)
 H  H 1.0  0.04382190(0)  0.70755576(0)  0.74922239(0)
 H  H 1.0  0.70759253(0)  0.95617715(0)  0.25081175(0)
 H  H 1.0  0.60166533(0)  0.74257228(0)  0.50060653(0)
 H  H 1.0  0.24015810(0)  0.50065552(0)  0.16285948(0)
 H  H 1.0  0.10326304(0)  0.49998362(0)  0.65195118(0)
 H  H 1.0  0.95620250(0)  0.79243136(0)  0.75081368(0)
 H  H 1.0  0.00063830(0)  0.24258452(0)  0.60168464(0)
 H  H 1.0  0.54381602(0)  0.25082762(0)  0.20758769(0)
 H  H 1.0  0.49930671(0)  0.75984789(0)  0.16283440(0)
 H  H 1.0  0.50067804(0)  0.74015416(0)  0.33716982(0)
 H  H 1.0  0.15194949(0)  -0.00001107(0)  0.89673182(0)
 H  H 1.0  0.24259213(0)  0.60169022(0)  -0.00059024(0)
 H  H 1.0  0.25082761(0)  0.29241007(0)  0.04385752(0)
 H  H 1.0  0.74259465(0)  0.00064901(0)  0.10168518(0)
 H  H 1.0  0.75081486(0)  0.79243221(0)  0.04379187(0)
 H  H 1.0  0.89673709(0)  0.00000811(0)  0.84805228(0)
 H  H 1.0  0.60327377(0)  0.34804752(0)  -0.00000751(0)
 H  H 1.0  0.39833579(0)  0.75743142(0)  0.00065195(0)
 H  H 1.0  0.60326910(0)  0.50001472(0)  0.84805018(0)
 H  H 1.0  0.04385478(0)  0.79241467(0)  0.24916534(0)
 H  H 1.0  0.49935631(0)  0.66284507(0)  0.74015971(0)
 H  H 1.0  0.25741228(0)  0.89832139(0)  0.00064835(0)
 H  H 1.0  0.45614395(0)  0.29240838(0)  0.24916582(0)
 H  H 1.0  0.00068239(0)  0.83715311(0)  0.74017232(0)
 H  H 1.0  0.04383746(0)  0.74917105(0)  0.29240452(0)
 H  H 1.0  0.25741820(0)  0.39832262(0)  0.49936523(0)
 H  H 1.0  0.75741665(0)  0.60167892(0)  0.00060291(0)
 H  H 1.0  0.50001523(0)  0.60327001(0)  0.15194614(0)
 H  H 1.0  0.24916667(0)  0.20757745(0)  0.95619831(0)
 H  H 1.0  0.74258182(0)  0.50060828(0)  0.39832030(0)
 H  H 1.0  0.89833032(0)  0.49936891(0)  0.75742318(0)
 H  H 1.0  0.84805657(0)  0.10326689(0)  -0.00000754(0)
 H  H 1.0  0.75984276(0)  0.49934002(0)  0.83715727(0)
 H  H 1.0  0.45618052(0)  0.74916501(0)  0.79239833(0)
 H  H 1.0  0.00068710(0)  0.16284381(0)  0.74016228(0)
 H  H 1.0  0.89674428(0)  -0.00000087(0)  0.15193143(0)
 H  H 1.0  0.70757522(0)  0.45619581(0)  0.75081466(0)
 H  H 1.0  0.45617973(0)  0.70756769(0)  0.24918855(0)
 H  H 1.0  0.74918163(0)  0.29241755(0)  0.95615366(0)
 H  H 1.0  0.04377414(0)  0.25080262(0)  0.29243268(0)
 H  H 1.0  0.83713336(0)  0.75984555(0)  0.49928276(0)
 H  H 1.0  0.49935182(0)  0.75742352(0)  0.10166905(0)
 H  H 1.0  0.74018384(0)  0.00067782(0)  0.16285288(0)
 H  H 1.0  0.49935743(0)  0.74015786(0)  0.66283268(0)
 H  H 1.0  0.49998485(0)  0.60327321(0)  0.84805318(0)
 H  H 1.0  0.10167640(0)  0.74257687(0)  -0.00059228(0)
 H  H 1.0  0.65195057(0)  0.49997920(0)  0.10327049(0)
 H  H 1.0  0.25985836(0)  0.66283767(0)  0.50072270(0)
 H  H 1.0  0.00057101(0)  0.39832328(0)  0.24258163(0)
 H  H 1.0  0.74013992(0)  0.66283688(0)  0.50061958(0)
 H  H 1.0  0.00002350(0)  0.60327386(0)  0.65196006(0)
 H  H 1.0  0.00065016(0)  0.74016403(0)  0.83717247(0)
 H  H 1.0  0.49930005(0)  0.24015727(0)  0.16284816(0)
 H  H 1.0  0.49999564(0)  0.89673191(0)  0.34805569(0)
 H  H 1.0  0.79244464(0)  0.04381905(0)  0.24919146(0)
 H  H 1.0  0.75082497(0)  0.04385033(0)  0.79242882(0)
 H  H 1.0  0.95615925(0)  0.75086655(0)  0.20758801(0)
 H  H 1.0  0.79241031(0)  0.95618681(0)  0.75083401(0)
 H  H 1.0  0.49934072(0)  0.24258025(0)  0.10168060(0)
 H  H 1.0  0.15194389(0)  0.10326616(0)  -0.00001106(0)
 H  H 1.0  0.60168132(0)  0.50062228(0)  0.25741937(0)
 H  H 1.0  0.89672174(0)  0.65196050(0)  0.50000076(0)
 H  H 1.0  0.39672799(0)  0.34804014(0)  0.00000902(0)
 H  H 1.0  0.29242359(0)  0.24917858(0)  0.54385080(0)
 H  H 1.0  0.95614722(0)  0.24917283(0)  0.20756397(0)
 H  H 1.0  0.74258211(0)  -0.00063444(0)  0.89832373(0)
 H  H 1.0  0.39831897(0)  0.00062027(0)  0.24257760(0)
 H  H 1.0  0.33716104(0)  0.24014407(0)  0.00071780(0)
 H  H 1.0  0.50069015(0)  0.16283706(0)  0.75984569(0)
 H  H 1.0  0.75984079(0)  0.00069960(0)  0.66285435(0)
 H  H 1.0  0.66284931(0)  0.24015554(0)  -0.00068389(0)
 H  H 1.0  0.89831930(0)  0.00064675(0)  0.74258189(0)
 H  H 1.0  0.39832905(0)  0.24257475(0)  0.00067407(0)
 H  H 1.0  0.75984277(0)  0.49931754(0)  0.16284417(0)
 H  H 1.0  0.66282599(0)  0.74015641(0)  0.50061900(0)
 H  H 1.0  0.25981630(0)  0.00066297(0)  0.16285450(0)
 H  H 1.0  0.45620420(0)  0.25080442(0)  0.79244395(0)
 H  H 1.0  0.50067324(0)  0.66284790(0)  0.25983590(0)
 H  H 1.0  0.60327920(0)  0.00002221(0)  0.34804234(0)
 H  H 1.0  0.33717173(0)  0.75986070(0)  0.00069747(0)
 H  H 1.0  0.50069833(0)  0.83715078(0)  0.75983168(0)
 H  H 1.0  0.00001949(0)  0.15193474(0)  0.10325539(0)
 H  H 1.0  0.00062998(0)  0.66282634(0)  0.75986389(0)
 H  H 1.0  0.60327139(0)  -0.00001791(0)  0.65195221(0)
 H  H 1.0  0.74015881(0)  0.50064487(0)  0.33715433(0)
 H  H 1.0  0.60326833(0)  0.15195097(0)  0.49998902(0)
 H  H 1.0  0.66284614(0)  0.50065040(0)  0.25984150(0)
 H  H 1.0  0.89673360(0)  0.49998216(0)  0.65195009(0)
 H  H 1.0  0.39672997(0)  0.65195997(0)  0.00000764(0)
 H  H 1.0  0.04385428(0)  0.29240371(0)  0.74916892(0)
 H  H 1.0  0.10325895(0)  -0.00000775(0)  0.15194189(0)
 H  H 1.0  0.70758811(0)  0.25082594(0)  0.04381150(0)
 H  H 1.0  0.95615057(0)  0.29242026(0)  0.25079518(0)
 H  H 1.0  0.54382117(0)  0.29243481(0)  0.75080687(0)
 H  H 1.0  0.10326828(0)  0.00000761(0)  0.84805546(0)
 H  H 1.0  0.00067914(0)  0.83717981(0)  0.25983119(0)
 H  H 1.0  0.24917935(0)  0.29242140(0)  0.54385072(0)
 H  H 1.0  0.16281947(0)  -0.00070683(0)  0.25984267(0)
 H  H 1.0  0.50066859(0)  0.75742523(0)  0.89832041(0)
 H  H 1.0  0.00000541(0)  0.10326884(0)  0.84805534(0)
 H  H 1.0  0.74918117(0)  0.70758789(0)  0.95614276(0)
 H  H 1.0  0.74015916(0)  0.33715303(0)  0.49931121(0)
 H  H 1.0  0.54381743(0)  0.24919048(0)  0.70756323(0)
 H  H 1.0  0.16286236(0)  0.75984521(0)  0.49936991(0)
 H  H 1.0  0.25081002(0)  0.95618509(0)  0.70756733(0)
 H  H 1.0  0.74258383(0)  0.39832290(0)  0.49934438(0)
 H  H 1.0  0.16284242(0)  0.50065864(0)  0.24016160(0)
 H  H 1.0  0.25984396(0)  0.33715471(0)  0.49934029(0)
 H  H 1.0  0.84804199(0)  0.60327933(0)  0.50003221(0)
 H  H 1.0  0.45620510(0)  0.20755600(0)  0.74920394(0)
 H  H 1.0  0.00063884(0)  0.33716143(0)  0.75984723(0)
 H  H 1.0  0.60327235(0)  0.65195041(0)  -0.00000642(0)
 H  H 1.0  0.49937521(0)  0.39832833(0)  0.74258080(0)
 H  H 1.0  0.65195116(0)  0.00000415(0)  0.60327599(0)
 H  H 1.0  0.29242126(0)  0.04382368(0)  0.74917928(0)
 H  H 1.0  0.75982307(0)  0.83714250(0)  0.49925077(0)
 H  H 1.0  0.75984876(0)  0.33715880(0)  0.00064036(0)
 H  H 1.0  0.25081485(0)  0.20756747(0)  0.45621158(0)
 H  H 1.0  0.75742066(0)  0.49935640(0)  0.10167885(0)
 H  H 1.0  0.00061848(0)  0.75741078(0)  0.39831404(0)
 H  H 1.0  0.65195089(0)  0.10326978(0)  0.50001652(0)
 H  H 1.0  0.79242620(0)  0.75082633(0)  0.95614576(0)
 H  H 1.0  0.70756991(0)  0.74919011(0)  0.04378490(0)
 H  H 1.0  0.65195166(0)  0.60327195(0)  0.00002009(0)
 H  H 1.0  0.50002334(0)  0.39672877(0)  0.15195116(0)
 H  H 1.0  0.00064717(0)  0.24257797(0)  0.39832486(0)
 H  H 1.0  0.45618505(0)  0.75080475(0)  0.29243825(0)
 H  H 1.0  0.00059354(0)  0.33715854(0)  0.24014921(0)
 H  H 1.0  0.29242216(0)  0.25081342(0)  0.95620688(0)
 H  H 1.0  0.83715844(0)  0.24015593(0)  0.50064522(0)
 H  H 1.0  0.50001017(0)  0.34805269(0)  0.89673166(0)
 H  H 1.0  0.75741820(0)  0.10167786(0)  0.50064147(0)
 H  H 1.0  0.50002267(0)  0.15194961(0)  0.39673074(0)
 N  N 1.0  0.00002155(0)  0.79887663(0)  0.79889093(0)
 N  N 1.0  0.50002194(0)  0.20111782(0)  0.70113170(0)
 N  N 1.0  0.79887781(0)  0.00001677(0)  0.79888303(0)
 N  N 1.0  0.00000763(0)  0.29887948(0)  0.70113119(0)
 N  N 1.0  0.79887568(0)  0.49999665(0)  0.29887378(0)
 N  N 1.0  0.29888305(0)  0.70114465(0)  0.00001190(0)
 N  N 1.0  0.70112098(0)  0.00001113(0)  0.70113609(0)
 N  N 1.0  0.70110257(0)  0.79886969(0)  0.49994606(0)
 N  N 1.0  0.49998637(0)  0.29887351(0)  0.20112786(0)
 N  N 1.0  0.00000926(0)  0.70112813(0)  0.29884803(0)
 N  N 1.0  0.20112231(0)  0.49999067(0)  0.29887845(0)
 N  N 1.0  0.29887458(0)  0.00001298(0)  0.70112399(0)
 N  N 1.0  0.70113097(0)  0.29887368(0)  -0.00001053(0)
 N  N 1.0  0.70113510(0)  0.00001007(0)  0.29886540(0)
 N  N 1.0  0.20111528(0)  0.79887772(0)  0.00003809(0)
 N  N 1.0  0.70112522(0)  0.50001493(0)  0.79887495(0)
 N  N 1.0  0.79887975(0)  0.20111928(0)  -0.00001944(0)
 N  N 1.0  0.50001553(0)  0.70113169(0)  0.20111984(0)
 N  N 1.0  0.79885131(0)  0.70112194(0)  0.49997750(0)
 N  N 1.0  0.29888218(0)  0.50000580(0)  0.79885910(0)
 N  N 1.0  0.00002650(0)  0.29886542(0)  0.29886697(0)
 N  N 1.0  0.50002820(0)  0.29887583(0)  0.79887318(0)
 N  N 1.0  0.79888316(0)  0.50002459(0)  0.70113179(0)
 N  N 1.0  0.00001902(0)  0.20112274(0)  0.79887863(0)
 N  N 1.0  0.79888425(0)  0.79887971(0)  -0.00002330(0)
 N  N 1.0  0.50002179(0)  0.79887353(0)  0.70111368(0)
 N  N 1.0  0.20114620(0)  0.70112279(0)  0.50002227(0)
 N  N 1.0  0.49997300(0)  0.20112247(0)  0.29887475(0)
 N  N 1.0  0.70112473(0)  0.20112614(0)  0.49997612(0)
 N  N 1.0  0.00003610(0)  0.20109503(0)  0.20112811(0)
 N  N 1.0  0.70112464(0)  0.70113193(0)  -0.00001834(0)
 N  N 1.0  0.70112530(0)  0.49999848(0)  0.20112427(0)
 N  N 1.0  0.50004092(0)  0.70113067(0)  0.79887706(0)
 N  N 1.0  0.00001479(0)  0.79890734(0)  0.20112014(0)
 N  N 1.0  0.79887633(0)  0.29887204(0)  0.49999606(0)
 N  N 1.0  0.20111579(0)  0.50002789(0)  0.70112846(0)
 N  N 1.0  0.29887479(0)  0.49999216(0)  0.20113575(0)
 N  N 1.0  0.20111658(0)  0.20112272(0)  0.00000524(0)
 N  N 1.0  0.29887275(0)  0.20112095(0)  0.50002370(0)
 N  N 1.0  0.29887459(0)  0.29886154(0)  0.00002036(0)
 N  N 1.0  0.29886783(0)  -0.00002855(0)  0.29886807(0)
 N  N 1.0  0.79890609(0)  0.00000831(0)  0.20112589(0)
 N  N 1.0  0.20109425(0)  -0.00001359(0)  0.20113249(0)
 N  N 1.0  0.20112146(0)  0.00000180(0)  0.79887460(0)
 N  N 1.0  0.29889343(0)  0.79887398(0)  0.50002136(0)
 N  N 1.0  0.00002194(0)  0.70111387(0)  0.70115364(0)
 N  N 1.0  0.49999813(0)  0.79886761(0)  0.29888847(0)
 N  N 1.0  0.20112658(0)  0.29887203(0)  0.50004198(0)
 O  O 1.0  0.50000354(0)  0.54861638(0)  0.17629233(0)
 O  O 1.0  0.17629118(0)  0.95139220(0)  -0.00000372(0)
 O  O 1.0  0.32370726(0)  -0.00000690(0)  0.54860979(0)
 O  O 1.0  0.49999945(0)  0.73236127(0)  0.95159127(0)
 O  O 1.0  0.00001727(0)  0.23235525(0)  0.95159438(0)
 O  O 1.0  0.50000723(0)  0.54841586(0)  0.76764455(0)
 O  O 1.0  0.45158354(0)  0.50000448(0)  0.23236971(0)
 O  O 1.0  0.17630422(0)  0.54861238(0)  0.49998779(0)
 O  O 1.0  0.45159102(0)  0.00000250(0)  0.73236088(0)
 O  O 1.0  0.76764443(0)  0.49999584(0)  0.45158862(0)
 O  O 1.0  0.04861539(0)  0.32370207(0)  0.49999171(0)
 O  O 1.0  0.95162824(0)  0.00001071(0)  0.23234672(0)
 O  O 1.0  0.73235824(0)  -0.00000151(0)  0.54842154(0)
 O  O 1.0  0.00000189(0)  0.95162824(0)  0.23234818(0)
 O  O 1.0  0.49999502(0)  0.04860464(0)  0.67629865(0)
 O  O 1.0  0.54861600(0)  0.00000165(0)  0.32369690(0)
 O  O 1.0  0.95135758(0)  0.67630036(0)  0.49999565(0)
 O  O 1.0  0.67629722(0)  0.54861493(0)  0.00000173(0)
 O  O 1.0  0.50000600(0)  0.23235602(0)  0.54841701(0)
 O  O 1.0  0.00000211(0)  0.26763755(0)  0.45158697(0)
 O  O 1.0  0.23234507(0)  -0.00001069(0)  0.04841987(0)
 O  O 1.0  0.45139084(0)  0.00000085(0)  0.67629728(0)
 O  O 1.0  0.54861181(0)  0.49999349(0)  0.17629797(0)
 O  O 1.0  0.67629757(0)  0.45138611(0)  -0.00000959(0)
 O  O 1.0  0.00000671(0)  0.67629404(0)  0.54864350(0)
 O  O 1.0  0.50000275(0)  0.32370121(0)  0.04861548(0)
 O  O 1.0  0.04861025(0)  0.49999123(0)  0.32370564(0)
 O  O 1.0  0.82370643(0)  0.50000638(0)  0.54861770(0)
 O  O 1.0  0.95139690(0)  0.50000724(0)  0.67629928(0)
 O  O 1.0  0.50000527(0)  0.54861353(0)  0.82370678(0)
 O  O 1.0  0.00000314(0)  0.95159288(0)  0.76764581(0)
 O  O 1.0  0.00000867(0)  0.45139313(0)  0.67629878(0)
 O  O 1.0  0.54860443(0)  0.67630133(0)  0.00000572(0)
 O  O 1.0  0.04863830(0)  0.67629901(0)  0.50000273(0)
 O  O 1.0  0.49999669(0)  0.95158532(0)  0.73235506(0)
 O  O 1.0  0.00000371(0)  0.04860784(0)  0.82370616(0)
 O  O 1.0  0.26764560(0)  -0.00000983(0)  0.54841030(0)
 O  O 1.0  0.73235897(0)  0.04841470(0)  0.50000005(0)
 O  O 1.0  0.54841425(0)  0.23235838(0)  0.50001049(0)
 O  O 1.0  0.04840786(0)  -0.00000381(0)  0.76764749(0)
 O  O 1.0  0.26764023(0)  0.04840816(0)  0.50000466(0)
 O  O 1.0  0.26764614(0)  0.45156965(0)  0.00000698(0)
 O  O 1.0  0.45140858(0)  0.82370569(0)  0.50000368(0)
 O  O 1.0  0.00000950(0)  0.17628461(0)  0.04860616(0)
 O  O 1.0  0.00000322(0)  0.76764800(0)  0.95160826(0)
 O  O 1.0  0.00000331(0)  0.04840884(0)  0.76764600(0)
 O  O 1.0  0.76765083(0)  -0.00000285(0)  0.04840632(0)
 O  O 1.0  0.95139305(0)  0.50001007(0)  0.32369914(0)
 O  O 1.0  0.00000718(0)  0.73235356(0)  0.45155602(0)
 O  O 1.0  0.82370306(0)  0.45138617(0)  0.50000594(0)
 O  O 1.0  0.32370860(0)  0.95138981(0)  0.49999903(0)
 O  O 1.0  0.54860839(0)  0.00000464(0)  0.67629874(0)
 O  O 1.0  0.82370312(0)  0.49999525(0)  0.45138798(0)
 O  O 1.0  0.76763925(0)  0.45158445(0)  0.50000771(0)
 O  O 1.0  0.54861364(0)  0.17629664(0)  0.50000872(0)
 O  O 1.0  0.76764715(0)  0.95159735(0)  -0.00000385(0)
 O  O 1.0  0.95159439(0)  0.23235117(0)  -0.00001602(0)
 O  O 1.0  0.54860582(0)  0.49999945(0)  0.82369936(0)
 O  O 1.0  0.17629689(0)  0.45138601(0)  0.50000731(0)
 O  O 1.0  0.49999062(0)  0.82370083(0)  0.45140737(0)
 O  O 1.0  0.73235250(0)  0.95157926(0)  0.50000749(0)
 O  O 1.0  0.49999050(0)  0.04840334(0)  0.73235879(0)
 O  O 1.0  0.23236222(0)  0.54840853(0)  0.49998667(0)
 O  O 1.0  0.95160593(0)  0.76764812(0)  -0.00000344(0)
 O  O 1.0  0.45160746(0)  0.76764461(0)  0.50000318(0)
 O  O 1.0  0.04860165(0)  0.50000465(0)  0.67630078(0)
 O  O 1.0  0.50000928(0)  0.76764607(0)  0.54839508(0)
 O  O 1.0  0.04836860(0)  -0.00001141(0)  0.23235744(0)
 O  O 1.0  0.04840161(0)  0.50000658(0)  0.73236191(0)
 O  O 1.0  0.26764588(0)  0.49999893(0)  0.95156332(0)
 O  O 1.0  0.32370165(0)  0.04861006(0)  0.50000779(0)
 O  O 1.0  0.82370957(0)  0.95139796(0)  -0.00000543(0)
 O  O 1.0  0.95139427(0)  0.17629398(0)  -0.00001579(0)
 O  O 1.0  0.45138354(0)  0.00000033(0)  0.32370341(0)
 O  O 1.0  0.50000790(0)  0.45139329(0)  0.82370072(0)
 O  O 1.0  0.00000465(0)  0.54841006(0)  0.26763413(0)
 O  O 1.0  0.26764621(0)  0.95158482(0)  0.49999973(0)
 O  O 1.0  0.00000038(0)  0.54860186(0)  0.67630478(0)
 O  O 1.0  0.17629775(0)  0.50000300(0)  0.45139098(0)
 O  O 1.0  0.32369609(0)  0.50000720(0)  0.04862146(0)
 O  O 1.0  0.82370952(0)  0.00000512(0)  0.95139771(0)
 O  O 1.0  0.00000768(0)  0.04837011(0)  0.23235441(0)
 O  O 1.0  0.45138714(0)  0.50000148(0)  0.82370146(0)
 O  O 1.0  0.76763879(0)  0.54841077(0)  0.49999824(0)
 O  O 1.0  0.45158334(0)  0.26763081(0)  -0.00000419(0)
 O  O 1.0  0.04844238(0)  0.73235841(0)  0.50000383(0)
 O  O 1.0  0.00000614(0)  0.67629834(0)  0.45135740(0)
 O  O 1.0  0.00000337(0)  0.45138530(0)  0.32370378(0)
 O  O 1.0  0.49999856(0)  0.67629978(0)  0.95139164(0)
 O  O 1.0  0.26763920(0)  0.00001106(0)  0.45158394(0)
 O  O 1.0  0.73235965(0)  0.50000292(0)  0.04841358(0)
 O  O 1.0  0.50000003(0)  0.04861157(0)  0.32370344(0)
 O  O 1.0  0.82370863(0)  -0.00000191(0)  0.04860184(0)
 O  O 1.0  0.04841506(0)  0.49999067(0)  0.26764240(0)
 O  O 1.0  0.73235818(0)  0.50000641(0)  0.95158955(0)
 O  O 1.0  0.04839661(0)  0.76764496(0)  0.00001843(0)
 O  O 1.0  0.45158726(0)  0.49999919(0)  0.76762991(0)
 O  O 1.0  0.00000929(0)  0.23234621(0)  0.04841085(0)
 O  O 1.0  0.54841465(0)  -0.00000013(0)  0.26763703(0)
 O  O 1.0  0.00000191(0)  0.54839707(0)  0.73236406(0)
 O  O 1.0  0.45138382(0)  0.32370003(0)  -0.00000227(0)
 O  O 1.0  0.50000194(0)  0.54841980(0)  0.23235515(0)
 O  O 1.0  0.00000889(0)  0.73235773(0)  0.54845033(0)
 O  O 1.0  0.32369824(0)  0.49999557(0)  0.95137365(0)
 O  O 1.0  0.26764768(0)  0.54843943(0)  -0.00000592(0)
 O  O 1.0  0.49998888(0)  0.76764275(0)  0.45160885(0)
 O  O 1.0  0.45158409(0)  -0.00000118(0)  0.26764103(0)
 O  O 1.0  0.54840465(0)  0.49999871(0)  0.76764715(0)
 O  O 1.0  0.67629741(0)  0.50000233(0)  0.04861290(0)
 O  O 1.0  0.82369811(0)  0.54861405(0)  0.49999805(0)
 O  O 1.0  0.95159264(0)  0.50001123(0)  0.26764262(0)
 O  O 1.0  0.82370452(0)  0.04860213(0)  0.00000839(0)
 O  O 1.0  0.00000520(0)  0.54861374(0)  0.32369065(0)
 O  O 1.0  0.95142882(0)  0.00001248(0)  0.17629082(0)
 O  O 1.0  0.50000070(0)  0.32370495(0)  0.95138652(0)
 O  O 1.0  0.00001010(0)  0.76765454(0)  0.04840049(0)
 O  O 1.0  0.73235791(0)  -0.00000343(0)  0.45158309(0)
 O  O 1.0  0.00001780(0)  0.17629509(0)  0.95139277(0)
 O  O 1.0  0.45159414(0)  0.73237116(0)  -0.00000678(0)
 O  O 1.0  0.95155472(0)  0.73236030(0)  0.49999678(0)
 O  O 1.0  0.23235126(0)  0.95159167(0)  -0.00000556(0)
 O  O 1.0  0.76764867(0)  0.00000740(0)  0.95159792(0)
 O  O 1.0  0.95139378(0)  -0.00000513(0)  0.82370401(0)
 O  O 1.0  0.23236162(0)  0.45158447(0)  0.50000966(0)
 O  O 1.0  0.00000837(0)  0.45159149(0)  0.73236131(0)
 O  O 1.0  0.00000448(0)  0.82371016(0)  0.95140720(0)
 O  O 1.0  0.49999898(0)  0.45158562(0)  0.23235812(0)
 O  O 1.0  0.73235994(0)  0.54841613(0)  0.00000047(0)
 O  O 1.0  0.67629659(0)  -0.00000474(0)  0.45138196(0)
 O  O 1.0  0.04841652(0)  0.26763896(0)  0.49999088(0)
 O  O 1.0  0.17629182(0)  0.04861225(0)  0.00000067(0)
 O  O 1.0  0.50000135(0)  0.26764420(0)  0.95158379(0)
 O  O 1.0  0.49998546(0)  0.17629454(0)  0.45138333(0)
 O  O 1.0  0.50000604(0)  0.26764048(0)  0.04841639(0)
 O  O 1.0  0.17629108(0)  0.50000393(0)  0.54861589(0)
 O  O 1.0  0.32369978(0)  0.54862709(0)  -0.00000754(0)
 O  O 1.0  0.23235751(0)  -0.00000138(0)  0.95159200(0)
 O  O 1.0  0.00000313(0)  0.95139456(0)  0.82370833(0)
 O  O 1.0  0.04857546(0)  -0.00001209(0)  0.17629720(0)
 O  O 1.0  0.67629655(0)  0.50000772(0)  0.95139001(0)
 O  O 1.0  0.00000357(0)  0.45158304(0)  0.26763899(0)
 O  O 1.0  0.95139007(0)  0.32370222(0)  0.50000750(0)
 O  O 1.0  0.04860675(0)  -0.00000388(0)  0.82370760(0)
 O  O 1.0  0.67629746(0)  0.00000195(0)  0.54862021(0)
 O  O 1.0  0.73235775(0)  0.45158627(0)  -0.00000866(0)
 O  O 1.0  0.32369573(0)  0.45137554(0)  0.00000653(0)
 O  O 1.0  0.49999911(0)  0.95138847(0)  0.67629283(0)
 O  O 1.0  0.45139235(0)  0.67630086(0)  -0.00000298(0)
 O  O 1.0  0.23235429(0)  0.50000428(0)  0.54842040(0)
 O  O 1.0  0.50000649(0)  0.95138751(0)  0.32370739(0)
 O  O 1.0  0.17629790(0)  -0.00000528(0)  0.95138968(0)
 O  O 1.0  0.54838634(0)  0.76764604(0)  0.49999807(0)
 O  O 1.0  0.00000281(0)  0.95142683(0)  0.17629088(0)
 O  O 1.0  0.45138358(0)  0.50000321(0)  0.17629815(0)
 O  O 1.0  0.00000380(0)  0.26764338(0)  0.54841966(0)
 O  O 1.0  0.04859591(0)  0.82370402(0)  0.00001923(0)
 O  O 1.0  0.04840330(0)  0.23235700(0)  0.00000812(0)
 O  O 1.0  0.04860427(0)  0.17629322(0)  0.00000632(0)
 O  O 1.0  0.54858955(0)  0.82370225(0)  0.49999598(0)
 O  O 1.0  0.95158982(0)  0.26764191(0)  0.50000521(0)
 O  O 1.0  0.50001117(0)  0.67630098(0)  0.04860220(0)
 O  O 1.0  0.50001115(0)  0.82370416(0)  0.54859498(0)
 O  O 1.0  0.50000476(0)  0.04841159(0)  0.26764144(0)
 O  O 1.0  0.50001038(0)  0.45159302(0)  0.76764019(0)
 O  O 1.0  0.00000128(0)  0.32369795(0)  0.45138538(0)
 O  O 1.0  0.54840332(0)  0.73235299(0)  0.00000683(0)
 O  O 1.0  0.54861460(0)  0.32369870(0)  0.00000842(0)
 O  O 1.0  0.50001472(0)  0.73236024(0)  0.04840165(0)
 O  O 1.0  0.76764137(0)  0.50000450(0)  0.54842221(0)
 O  O 1.0  0.45158135(0)  0.23235710(0)  0.50001627(0)
 O  O 1.0  0.50000857(0)  0.95158389(0)  0.26764531(0)
 O  O 1.0  0.95159411(0)  -0.00000597(0)  0.76764313(0)
 O  O 1.0  0.49999634(0)  0.45138505(0)  0.17629760(0)
 O  O 1.0  0.50000643(0)  0.17629506(0)  0.54861423(0)
 O  O 1.0  0.67629626(0)  0.04861612(0)  0.50000045(0)
 O  O 1.0  0.23235449(0)  0.04841328(0)  -0.00000259(0)
 O  O 1.0  0.95159665(0)  0.50000904(0)  0.73235735(0)
 O  O 1.0  0.00000552(0)  0.32370611(0)  0.54861659(0)
 O  O 1.0  0.00000946(0)  0.04857315(0)  0.17629407(0)
 O  O 1.0  0.26764612(0)  0.50000560(0)  0.04842752(0)
 O  O 1.0  0.00001167(0)  0.82371044(0)  0.04859538(0)
 O  O 1.0  0.54841383(0)  0.26764573(0)  0.00000926(0)
 O  O 1.0  0.67629210(0)  0.95138591(0)  0.50000522(0)
 O  O 1.0  0.76764648(0)  0.04840196(0)  0.00000748(0)
 O  O 1.0  0.95140504(0)  0.82370653(0)  -0.00000164(0)
 O  O 1.0  0.17628405(0)  -0.00000951(0)  0.04861358(0)
 O  O 1.0  0.32369986(0)  0.00001197(0)  0.45138351(0)
 O  O 1.0  0.54840712(0)  0.00000468(0)  0.73235705(0)
 O  O 1.0  0.45138324(0)  0.17629418(0)  0.50001573(0)
 O  O 1.0  0.54841097(0)  0.49999200(0)  0.23235105(0)
 O  O 1.0  0.49998615(0)  0.23235771(0)  0.45158188(0)
 O  O 1.0  0.23235848(0)  0.50000540(0)  0.45159134(0)

